ligand
 OpenBabel11222513293D

 22 24  0  0  0  0  0  0  0  0999 V2000
  -26.3950    6.4320    7.6890 C   0  0  0  0  0  0  0  0  0  0  0  0
  -25.5890    7.3380    7.0090 C   0  0  0  0  0  0  0  0  0  0  0  0
  -26.0960    8.5610    6.6370 C   0  0  0  0  0  0  0  0  0  0  0  0
  -27.4820    8.8630    6.9760 C   0  0  0  0  0  0  0  0  0  0  0  0
  -28.2690    7.9480    7.6520 C   0  0  0  0  0  0  0  0  0  0  0  0
  -27.7170    6.7310    8.0060 C   0  0  0  0  0  0  0  0  0  0  0  0
  -25.5930    9.6570    5.9740 N   0  0  0  0  0  0  0  0  0  0  0  0
  -26.5650   10.6250    5.8750 C   0  0  0  0  0  0  0  0  0  0  0  0
  -27.7680   10.1080    6.5170 C   0  0  2  0  0  0  0  0  0  0  0  0
  -26.6080   11.8750    5.3320 C   0  0  0  0  0  0  0  0  0  0  0  0
  -27.7680   12.6280    5.3930 C   0  0  0  0  0  0  0  0  0  0  0  0
  -28.9110   12.1330    6.0050 C   0  0  0  0  0  0  0  0  0  0  0  0
  -28.9310   10.8570    6.5810 C   0  0  0  0  0  0  0  0  0  0  0  0
  -30.0490   10.3670    7.1820 O   0  0  0  0  0  0  0  0  0  0  0  0
  -31.2420   11.1050    7.3640 C   0  0  0  0  0  0  0  0  0  0  0  0
  -32.2670   10.2300    8.0410 C   0  0  1  0  0  0  0  0  0  0  0  0
  -33.4770   10.9570    8.1700 O   0  0  0  0  0  0  0  0  0  0  0  0
  -32.4780    8.9510    7.2250 C   0  0  0  0  0  0  0  0  0  0  0  0
  -33.7020    8.2500    7.6000 N   0  0  0  0  0  0  0  0  0  0  0  0
  -33.8060    6.8050    7.4980 C   0  0  0  0  0  0  0  0  0  0  0  0
  -33.5330    6.3850    6.0550 C   0  0  0  0  0  0  0  0  0  0  0  0
  -35.1840    6.3500    7.9880 C   0  0  0  0  0  0  0  0  0  0  0  0
  1  6  2  0  0  0  0
  1  2  1  0  0  0  0
  2  3  2  0  0  0  0
  3  4  1  0  0  0  0
  3  7  1  0  0  0  0
  4  5  2  0  0  0  0
  4  9  1  0  0  0  0
  5  6  1  0  0  0  0
  7  8  2  0  0  0  0
  8 10  1  0  0  0  0
  9  8  1  1  0  0  0
  9 13  1  0  0  0  0
 10 11  2  0  0  0  0
 11 12  1  0  0  0  0
 12 13  2  0  0  0  0
 13 14  1  0  0  0  0
 14 15  1  0  0  0  0
 15 16  1  0  0  0  0
 16 18  1  0  0  0  0
 16 17  1  6  0  0  0
 18 19  1  0  0  0  0
 19 20  1  0  0  0  0
 20 21  1  0  0  0  0
 20 22  1  0  0  0  0
M  END
$$$$
