
     RDKit          3D

 36 40  0  0  0  0  0  0  0  0999 V2000
    3.4854   45.5199   55.1443 C   0  0  0  0  0  0  0  0  0  0  0  0
    8.2540   44.9624   52.6496 C   0  0  0  0  0  0  0  0  0  0  0  0
    1.5226   46.3364   54.1871 N   0  0  0  0  0  0  0  0  0  0  0  0
    6.9971   44.7389   53.4208 C   0  0  0  0  0  0  0  0  0  0  0  0
    7.7345   43.0620   49.6477 N   0  0  0  0  0  0  0  0  0  0  0  0
    2.2325   46.2777   55.4608 C   0  0  0  0  0  0  0  0  0  0  0  0
    5.7409   45.2870   52.9864 N   0  0  0  0  0  0  0  0  0  0  0  0
    3.6870   42.0125   50.2903 C   0  0  0  0  0  0  0  0  0  0  0  0
    3.0007   43.1093   48.1486 C   0  0  0  0  0  0  0  0  0  0  0  0
    4.5313   44.4823   53.1259 C   0  0  0  0  0  0  0  0  0  0  0  0
    2.2378   45.7569   53.2839 C   0  0  0  0  0  0  0  0  0  0  0  0
    9.6636   44.3658   54.5254 N   0  0  0  0  0  0  0  0  0  0  0  0
    5.3752   43.0574   48.9096 C   0  0  0  0  0  0  0  0  0  0  0  0
    7.0108   43.9911   54.4370 O   0  0  0  0  0  0  0  0  0  0  0  0
    7.5244   45.4784   48.2476 S   0  0  0  0  0  0  0  0  0  0  0  0
    9.7026   43.6962   48.3686 N   0  0  0  0  0  0  0  0  0  0  0  0
    8.1498   45.4668   51.2341 C   0  0  0  0  0  0  0  0  0  0  0  0
    9.1337   44.9221   48.9342 C   0  0  0  0  0  0  0  0  0  0  0  0
   10.5577   44.9143   51.0247 C   0  0  0  0  0  0  0  0  0  0  0  0
    6.3626   42.7037   49.8410 C   0  0  0  0  0  0  0  0  0  0  0  0
    1.7798   45.5828   51.8658 C   0  0  0  0  0  0  0  0  0  0  0  0
    9.2643   45.0005   50.4033 N   0  0  0  0  0  0  0  0  0  0  0  0
    4.6679   41.6499   51.2163 C   0  0  0  0  0  0  0  0  0  0  0  0
   11.7466   44.9297   50.2396 N   0  0  0  0  0  0  0  0  0  0  0  0
    8.2513   43.8096   48.4990 C   0  0  0  0  0  0  0  0  0  0  0  0
    4.0320   42.7208   49.1294 C   0  0  0  0  0  0  0  0  0  0  0  0
    9.4842   44.7244   53.1577 C   0  0  0  0  0  0  0  0  0  0  0  0
   10.6446   44.7926   52.3142 N   0  0  0  0  0  0  0  0  0  0  0  0
    6.0021   41.9977   50.9924 C   0  0  0  0  0  0  0  0  0  0  0  0
    1.5627   42.7822   48.3733 C   0  0  0  0  0  0  0  0  0  0  0  0
    5.6639   46.5978   52.3538 C   0  0  0  0  0  0  0  0  0  0  0  0
    3.4610   45.2275   53.8566 C   0  0  0  0  0  0  0  0  0  0  0  0
    1.1844   44.2013   51.6889 C   0  0  0  0  0  0  0  0  0  0  0  0
    3.3247   43.7259   47.0988 O   0  0  0  0  0  0  0  0  0  0  0  0
    0.8201   46.5299   51.5590 F   0  0  0  0  0  0  0  0  0  0  0  0
    2.8472   45.7332   50.9983 F   0  0  0  0  0  0  0  0  0  0  0  0
  2 27  2  0
  2  4  1  0
  3  6  1  0
  4 14  2  0
  5 20  1  0
  6  1  1  0
  7  4  1  0
  7 10  1  0
  8 23  4  0
  9 30  1  0
  9 26  1  0
 11  3  2  0
 11 32  1  0
 13 26  4  0
 13 20  4  0
 15 18  1  0
 16 18  1  0
 17  2  1  0
 18 22  1  0
 19 28  2  0
 20 29  4  0
 21 11  1  0
 22 19  1  0
 22 17  1  0
 24 19  1  0
 25  5  1  0
 25 16  1  0
 25 15  1  0
 25 18  1  0
 26  8  4  0
 27 12  1  0
 28 27  1  0
 29 23  4  0
 31  7  1  0
 32 10  1  0
 32  1  2  0
 33 21  1  0
 34  9  2  0
 35 21  1  0
 36 21  1  0
M  END
$$$$

     RDKit          3D

 27 30  0  0  0  0  0  0  0  0999 V2000
    6.8921   44.5761   51.5023 N   0  0  0  0  0  0  0  0  0  0  0  0
    5.0618   42.6050   49.0022 C   0  0  0  0  0  0  0  0  0  0  0  0
    3.8211   41.9797   48.8501 C   0  0  0  0  0  0  0  0  0  0  0  0
    1.8733   45.1665   54.5600 C   0  0  0  0  0  0  0  0  0  0  0  0
    6.3373   46.7484   53.4903 N   0  0  0  0  0  0  0  0  0  0  0  0
    4.1964   46.0941   52.6576 N   0  0  0  0  0  0  0  0  0  0  0  0
    3.3636   45.0834   54.8546 C   0  0  0  0  0  0  0  0  0  0  0  0
    7.8824   43.7314   49.3199 C   0  0  0  0  0  0  0  0  0  0  0  0
    4.6179   40.8954   46.8386 C   0  0  0  0  0  0  0  0  0  0  0  0
    7.3670   43.0223   48.1852 N   0  0  0  0  0  0  0  0  0  0  0  0
    7.4317   46.7360   52.7839 C   0  0  0  0  0  0  0  0  0  0  0  0
    7.3268   43.4062   50.7146 C   0  0  0  0  0  0  0  0  0  0  0  0
   10.7374   46.0830   49.7746 N   0  0  0  0  0  0  0  0  0  0  0  0
    8.5282   48.1499   52.9436 S   0  0  0  0  0  0  0  0  0  0  0  0
    7.8031   45.6203   51.8710 C   0  0  0  0  0  0  0  0  0  0  0  0
    1.5245   44.3447   53.3245 C   0  0  0  0  0  0  0  0  0  0  0  0
    3.6507   44.8529   52.1085 C   0  0  0  0  0  0  0  0  0  0  0  0
    8.9370   44.4960   49.1277 N   0  0  0  0  0  0  0  0  0  0  0  0
    2.1320   44.9259   52.0536 C   0  0  0  0  0  0  0  0  0  0  0  0
    8.8492   45.6674   51.1197 C   0  0  0  0  0  0  0  0  0  0  0  0
    5.3249   45.7026   53.5181 C   0  0  0  0  0  0  0  0  0  0  0  0
    4.1103   46.2144   54.1411 C   0  0  0  0  0  0  0  0  0  0  0  0
    9.4473   47.3885   54.3114 C   0  0  0  0  0  0  0  0  0  0  0  0
    9.5722   45.3384   50.1067 C   0  0  0  0  0  0  0  0  0  0  0  0
    3.5998   41.1229   47.7687 C   0  0  0  0  0  0  0  0  0  0  0  0
    6.0935   42.3709   48.0794 C   0  0  0  0  0  0  0  0  0  0  0  0
    5.8586   41.5217   46.9923 C   0  0  0  0  0  0  0  0  0  0  0  0
  1 15  1  0
  3  2  4  0
  4  7  1  0
  6 17  1  0
  6 21  1  0
  6 22  1  0
  8 18  2  0
  8 12  1  0
  9 25  4  0
 10 26  1  0
 10  8  1  0
 11  5  2  3
 11 14  1  0
 12  1  1  0
 15 11  1  0
 16  4  1  0
 17 19  1  0
 18 24  1  0
 19 16  1  0
 20 15  2  0
 21  5  1  0
 21 22  1  0
 22  7  1  0
 23 14  1  0
 24 13  1  0
 24 20  2  0
 25  3  4  0
 26  2  4  0
 27  9  4  0
 27 26  4  0
M  END
$$$$

     RDKit          3D

 18 19  0  0  0  0  0  0  0  0999 V2000
    7.3438   43.4212   51.0387 N   0  0  0  0  0  0  0  0  0  0  0  0
    9.6945   45.1772   50.8005 C   0  0  0  0  0  0  0  0  0  0  0  0
   10.9686   45.3029   50.9746 N   0  0  0  0  0  0  0  0  0  0  0  0
    4.9430   40.5762   47.2484 C   0  0  0  0  0  0  0  0  0  0  0  0
    6.1307   41.2874   47.4452 C   0  0  0  0  0  0  0  0  0  0  0  0
    9.2240   44.2147   49.8472 N   0  0  0  0  0  0  0  0  0  0  0  0
    7.1299   47.9461   52.6375 N   0  0  0  0  0  0  0  0  0  0  0  0
    8.3879   47.7652   53.1113 C   0  0  0  0  0  0  0  0  0  0  0  0
    4.1179   41.3647   49.3822 C   0  0  0  0  0  0  0  0  0  0  0  0
    6.6984   47.2293   51.5700 C   0  0  0  0  0  0  0  0  0  0  0  0
    6.3231   42.0375   48.6109 C   0  0  0  0  0  0  0  0  0  0  0  0
    3.9368   40.6143   48.2175 C   0  0  0  0  0  0  0  0  0  0  0  0
    7.5239   46.3296   50.9788 N   0  0  0  0  0  0  0  0  0  0  0  0
    5.3059   42.0752   49.5775 C   0  0  0  0  0  0  0  0  0  0  0  0
    9.2128   46.8651   52.5195 N   0  0  0  0  0  0  0  0  0  0  0  0
    7.5506   42.7638   48.7684 N   0  0  0  0  0  0  0  0  0  0  0  0
    7.9775   43.5135   49.9140 C   0  0  0  0  0  0  0  0  0  0  0  0
    8.7819   46.1361   51.4557 C   0  0  0  0  0  0  0  0  0  0  0  0
  2  3  2  0
  2 18  1  0
  4 12  4  0
  5  4  4  0
  5 11  4  0
  6  2  1  0
  7  8  4  0
 10  7  4  0
 11 14  4  0
 12  9  4  0
 13 18  4  0
 13 10  4  0
 14  9  4  0
 15  8  4  0
 16 11  1  0
 16 17  1  0
 17  6  1  0
 17  1  2  0
 18 15  4  0
M  END
$$$$

     RDKit          3D

 23 25  0  0  0  0  0  0  0  0999 V2000
    7.0457   45.6577   51.9305 N   0  0  0  0  0  0  0  0  0  0  0  0
    6.1250   45.1616   51.0652 C   0  0  0  0  0  0  0  0  0  0  0  0
    6.4199   39.0199   48.3731 C   0  0  0  0  0  0  0  0  0  0  0  0
    4.0872   47.4882   52.7694 C   0  0  0  0  0  0  0  0  0  0  0  0
    8.3720   44.7033   49.2102 N   0  0  0  0  0  0  0  0  0  0  0  0
    5.1202   46.6876   52.2883 C   0  0  0  0  0  0  0  0  0  0  0  0
    5.4115   38.9610   49.3389 C   0  0  0  0  0  0  0  0  0  0  0  0
    7.5252   43.7604   49.4600 C   0  0  0  0  0  0  0  0  0  0  0  0
    9.8126   46.6421   53.3357 O   0  0  0  0  0  0  0  0  0  0  0  0
    8.3824   45.1275   52.1768 C   0  0  0  0  0  0  0  0  0  0  0  0
    5.1504   40.0730   50.1438 C   0  0  0  0  0  0  0  0  0  0  0  0
    9.8548   46.8264   51.0218 N   0  0  0  0  0  0  0  0  0  0  0  0
    2.6150   46.4047   51.1388 C   0  0  0  0  0  0  0  0  0  0  0  0
    7.1656   40.1916   48.2113 C   0  0  0  0  0  0  0  0  0  0  0  0
    6.9071   41.3122   49.0087 C   0  0  0  0  0  0  0  0  0  0  0  0
    6.4347   46.5931   52.7020 C   0  0  0  0  0  0  0  0  0  0  0  0
    6.3207   44.0527   50.1776 N   0  0  0  0  0  0  0  0  0  0  0  0
    5.8969   41.2435   49.9808 C   0  0  0  0  0  0  0  0  0  0  0  0
    7.7040   42.4897   48.8221 N   0  0  0  0  0  0  0  0  0  0  0  0
    9.3916   46.2261   52.2255 C   0  0  0  0  0  0  0  0  0  0  0  0
    3.6760   45.6046   50.6774 C   0  0  0  0  0  0  0  0  0  0  0  0
    2.8194   47.3408   52.1768 C   0  0  0  0  0  0  0  0  0  0  0  0
    4.9199   45.7813   51.2795 C   0  0  0  0  0  0  0  0  0  0  0  0
  1 16  4  0
  2 23  4  0
  2  1  4  0
  3  7  4  0
  6 16  4  0
  6  4  4  0
  7 11  4  0
  8  5  2  0
  8 17  1  0
 10 20  1  0
 10  1  1  0
 12 20  1  0
 13 22  4  0
 14  3  4  0
 14 15  4  0
 15 18  4  0
 17  2  1  0
 18 11  4  0
 19 15  1  0
 19  8  1  0
 20  9  2  0
 21 23  4  0
 21 13  4  0
 22  4  4  0
 23  6  4  0
M  END
$$$$

     RDKit          3D

 36 42  0  0  0  0  0  0  0  0999 V2000
    6.1430   47.2237   53.9122 C   0  0  0  0  0  0  0  0  0  0  0  0
    4.5393   43.1316   55.2592 O   0  0  0  0  0  0  0  0  0  0  0  0
   10.5807   44.4386   51.0878 N   0  0  0  0  0  0  0  0  0  0  0  0
   10.4344   46.7591   52.1045 C   0  0  0  0  0  0  0  0  0  0  0  0
    3.4079   42.2703   47.3386 C   0  0  0  0  0  0  0  0  0  0  0  0
    6.8150   43.0057   48.6629 N   0  0  0  0  0  0  0  0  0  0  0  0
    3.4757   43.9393   55.6756 C   0  0  0  0  0  0  0  0  0  0  0  0
    6.8883   47.5295   55.0185 N   0  0  0  0  0  0  0  0  0  0  0  0
    4.7987   42.2738   47.5067 C   0  0  0  0  0  0  0  0  0  0  0  0
    3.1209   41.8425   44.8399 C   0  0  0  0  0  0  0  0  0  0  0  0
    4.6542   47.2300   53.9902 C   0  0  0  0  0  0  0  0  0  0  0  0
    6.7833   46.8919   52.7088 C   0  0  0  0  0  0  0  0  0  0  0  0
    4.2444   42.7701   53.9366 C   0  0  0  0  0  0  0  0  0  0  0  0
    8.8212   45.9570   50.3428 C   0  0  0  0  0  0  0  0  0  0  0  0
    4.1488   45.8723   54.1644 N   0  0  0  0  0  0  0  0  0  0  0  0
    5.3882   43.0419   48.5171 C   0  0  0  0  0  0  0  0  0  0  0  0
    1.7130   42.0509   45.3882 C   0  0  0  0  0  0  0  0  0  0  0  0
    3.9237   46.1353   56.4805 O   0  0  0  0  0  0  0  0  0  0  0  0
   10.3355   47.1612   53.5952 C   0  0  0  0  0  0  0  0  0  0  0  0
    3.1844   43.7821   49.2227 C   0  0  0  0  0  0  0  0  0  0  0  0
    4.7908   43.8102   52.9649 C   0  0  0  0  0  0  0  0  0  0  0  0
    8.8550   43.5991   49.6972 N   0  0  0  0  0  0  0  0  0  0  0  0
    2.7918   41.4379   46.2569 C   0  0  0  0  0  0  0  0  0  0  0  0
    9.0569   46.6173   51.6223 N   0  0  0  0  0  0  0  0  0  0  0  0
    3.8435   45.3760   55.4775 C   0  0  0  0  0  0  0  0  0  0  0  0
    9.5312   44.6550   50.3541 C   0  0  0  0  0  0  0  0  0  0  0  0
    8.8665   47.2099   53.8268 C   0  0  0  0  0  0  0  0  0  0  0  0
    4.5720   43.7902   49.3786 C   0  0  0  0  0  0  0  0  0  0  0  0
    7.0788   45.5475   49.9594 S   0  0  0  0  0  0  0  0  0  0  0  0
    7.6334   43.9114   49.4151 C   0  0  0  0  0  0  0  0  0  0  0  0
    3.9160   45.0624   52.9684 C   0  0  0  0  0  0  0  0  0  0  0  0
    8.1727   46.8896   52.7029 C   0  0  0  0  0  0  0  0  0  0  0  0
    8.2270   47.5272   54.9814 N   0  0  0  0  0  0  0  0  0  0  0  0
   11.2184   45.4386   51.9686 C   0  0  0  0  0  0  0  0  0  0  0  0
    2.7050   40.0585   46.4408 O   0  0  0  0  0  0  0  0  0  0  0  0
    2.6025   43.0213   48.2059 C   0  0  0  0  0  0  0  0  0  0  0  0
  1 11  1  0
  1  8  4  0
  2  7  1  0
  3 34  1  0
  4 34  1  0
  4 19  1  0
  5  9  4  0
  5 36  4  0
  6 16  1  0
  6 30  1  0
  8 33  4  0
  9 16  4  0
 10 17  1  0
 10 23  1  0
 12 32  4  0
 12  1  4  0
 13  2  1  0
 14 29  1  0
 14 24  1  0
 15 11  1  0
 15 25  1  0
 16 28  4  0
 17 23  1  0
 19 27  1  0
 21 31  1  0
 21 13  1  0
 22 26  1  0
 23 35  1  0
 23  5  1  0
 24  4  1  0
 24 32  1  0
 25  7  1  0
 25 18  2  0
 26  3  2  0
 26 14  1  0
 27 33  4  0
 28 20  4  0
 30 22  2  0
 30 29  1  0
 31 15  1  0
 32 27  4  0
 36 20  4  0
M  END
$$$$

     RDKit          3D

 18 19  0  0  0  0  0  0  0  0999 V2000
    6.9342   48.8497   51.6242 N   0  0  0  0  0  0  0  0  0  0  0  0
    8.7037   46.1324   53.2415 C   0  0  0  0  0  0  0  0  0  0  0  0
    8.8498   45.7785   49.5983 C   0  0  0  0  0  0  0  0  0  0  0  0
    8.2908   46.7445   51.9136 C   0  0  0  0  0  0  0  0  0  0  0  0
    6.1277   41.4828   50.4339 C   0  0  0  0  0  0  0  0  0  0  0  0
    7.7913   43.8199   49.3246 C   0  0  0  0  0  0  0  0  0  0  0  0
    5.0071   39.3892   49.9676 C   0  0  0  0  0  0  0  0  0  0  0  0
    6.5694   41.5555   49.1046 C   0  0  0  0  0  0  0  0  0  0  0  0
    7.3193   44.2836   50.8785 S   0  0  0  0  0  0  0  0  0  0  0  0
    7.3791   42.6378   48.6238 N   0  0  0  0  0  0  0  0  0  0  0  0
    8.6124   44.7336   48.7621 N   0  0  0  0  0  0  0  0  0  0  0  0
    8.2203   45.7074   50.8357 C   0  0  0  0  0  0  0  0  0  0  0  0
    5.3483   40.4050   50.8641 C   0  0  0  0  0  0  0  0  0  0  0  0
    5.4465   39.4517   48.6427 C   0  0  0  0  0  0  0  0  0  0  0  0
    9.6826   46.8675   49.2145 N   0  0  0  0  0  0  0  0  0  0  0  0
    6.2258   40.5310   48.2150 C   0  0  0  0  0  0  0  0  0  0  0  0
    7.0011   47.4906   52.0378 C   0  0  0  0  0  0  0  0  0  0  0  0
    5.9697   46.9233   52.4874 O   0  0  0  0  0  0  0  0  0  0  0  0
  1 17  1  0
  3 15  1  0
  3 12  4  0
  4  2  1  0
  4 17  1  0
  5 13  4  0
  6 11  4  0
  6  9  4  0
  7 13  4  0
  8  5  4  0
  9 12  4  0
 10  8  1  0
 10  6  1  0
 11  3  4  0
 12  4  1  0
 14  7  4  0
 16 14  4  0
 16  8  4  0
 17 18  2  0
M  END
$$$$

     RDKit          3D

 28 32  0  0  0  0  0  0  0  0999 V2000
    4.2550   41.0434   49.2292 C   0  0  0  0  0  0  0  0  0  0  0  0
    3.8614   42.0107   48.3920 C   0  0  0  0  0  0  0  0  0  0  0  0
    6.6970   45.0010   51.3054 N   0  0  0  0  0  0  0  0  0  0  0  0
    2.9298   45.8889   53.2880 N   0  0  0  0  0  0  0  0  0  0  0  0
    9.2335   43.9477   49.1062 N   0  0  0  0  0  0  0  0  0  0  0  0
   11.3396   45.9597   50.4033 N   0  0  0  0  0  0  0  0  0  0  0  0
    8.7636   46.2241   52.7451 C   0  0  0  0  0  0  0  0  0  0  0  0
    9.7880   46.8375   53.4600 O   0  0  0  0  0  0  0  0  0  0  0  0
    6.9826   43.1231   47.7091 N   0  0  0  0  0  0  0  0  0  0  0  0
    2.3623   43.7121   54.1176 C   0  0  0  0  0  0  0  0  0  0  0  0
    0.9553   45.6719   54.6877 C   0  0  0  0  0  0  0  0  0  0  0  0
    6.4664   45.5266   52.5237 C   0  0  0  0  0  0  0  0  0  0  0  0
    3.7919   43.6724   53.6370 C   0  0  0  0  0  0  0  0  0  0  0  0
    6.9164   44.3535   48.5286 C   0  0  0  0  0  0  0  0  0  0  0  0
    6.0171   43.2232   48.8089 C   0  0  0  0  0  0  0  0  0  0  0  0
    5.3329   45.5730   53.2850 C   0  0  0  0  0  0  0  0  0  0  0  0
    1.8062   45.0257   53.6144 C   0  0  0  0  0  0  0  0  0  0  0  0
    4.5831   43.3296   48.2917 C   0  0  0  0  0  0  0  0  0  0  0  0
    6.9275   46.5236   54.4714 C   0  0  0  0  0  0  0  0  0  0  0  0
    5.6115   46.1711   54.4717 N   0  0  0  0  0  0  0  0  0  0  0  0
    7.4914   46.1336   53.2728 C   0  0  0  0  0  0  0  0  0  0  0  0
    6.3047   42.2078   49.8818 C   0  0  0  0  0  0  0  0  0  0  0  0
    4.0097   44.9866   52.9169 C   0  0  0  0  0  0  0  0  0  0  0  0
    5.4698   41.1826   50.0564 C   0  0  0  0  0  0  0  0  0  0  0  0
   10.2881   45.8317   50.8699 C   0  0  0  0  0  0  0  0  0  0  0  0
    8.9749   45.6752   51.4567 C   0  0  0  0  0  0  0  0  0  0  0  0
    7.9288   45.0555   50.7711 N   0  0  0  0  0  0  0  0  0  0  0  0
    8.0945   44.4472   49.4684 C   0  0  0  0  0  0  0  0  0  0  0  0
  1 24  1  0
  2 18  1  0
  2  1  2  0
  3 12  4  0
  4 17  1  0
  5 28  2  0
  6 25  3  0
  7  8  1  0
  7 21  4  0
  9 15  1  0
  9 14  1  0
 10 17  1  0
 12 21  1  0
 12 16  4  0
 13 23  1  0
 13 10  1  0
 14 28  1  0
 15 18  1  0
 15 14  1  0
 15 22  1  0
 16 20  4  0
 17 11  1  0
 19 20  4  0
 21 19  4  0
 22 24  2  0
 23 16  1  0
 23  4  1  0
 25 26  1  0
 26  7  4  0
 27 26  4  0
 27  3  4  0
 28 27  1  0
M  END
$$$$

     RDKit          3D

 23 24  0  0  0  0  0  0  0  0999 V2000
    3.1455   43.8750   48.9417 C   0  0  0  0  0  0  0  0  0  0  0  0
    3.6541   41.8108   47.7858 C   0  0  0  0  0  0  0  0  0  0  0  0
    7.5302   44.6517   49.1371 C   0  0  0  0  0  0  0  0  0  0  0  0
    7.1759   46.5119   53.0930 C   0  0  0  0  0  0  0  0  0  0  0  0
    6.5576   45.7176   54.1450 N   0  0  0  0  0  0  0  0  0  0  0  0
    8.3650   45.7688   52.5125 C   0  0  0  0  0  0  0  0  0  0  0  0
    5.4599   43.2385   48.5572 C   0  0  0  0  0  0  0  0  0  0  0  0
   10.8595   45.3225   50.5876 N   0  0  0  0  0  0  0  0  0  0  0  0
    5.0211   42.0716   47.9219 C   0  0  0  0  0  0  0  0  0  0  0  0
    5.1809   43.8110   55.0520 C   0  0  0  0  0  0  0  0  0  0  0  0
    2.7163   42.7135   48.2942 C   0  0  0  0  0  0  0  0  0  0  0  0
    9.5953   45.4996   50.3842 C   0  0  0  0  0  0  0  0  0  0  0  0
    8.8913   44.5486   49.5747 N   0  0  0  0  0  0  0  0  0  0  0  0
    4.8786   42.9227   52.2835 C   0  0  0  0  0  0  0  0  0  0  0  0
    6.8829   46.1254   48.7948 S   0  0  0  0  0  0  0  0  0  0  0  0
    6.8698   43.4498   48.7161 N   0  0  0  0  0  0  0  0  0  0  0  0
    4.6487   42.4296   54.6816 C   0  0  0  0  0  0  0  0  0  0  0  0
    5.5983   44.1424   52.6560 N   0  0  0  0  0  0  0  0  0  0  0  0
    3.8935   42.5068   53.3664 C   0  0  0  0  0  0  0  0  0  0  0  0
    4.5122   44.1341   49.0768 C   0  0  0  0  0  0  0  0  0  0  0  0
    5.8144   44.5232   53.8851 C   0  0  0  0  0  0  0  0  0  0  0  0
    8.8396   46.4633   51.2502 C   0  0  0  0  0  0  0  0  0  0  0  0
    9.6274   47.5706   51.5736 O   0  0  0  0  0  0  0  0  0  0  0  0
  2 11  4  0
  3 13  1  0
  3 15  2  0
  4  5  1  0
  6  4  1  0
  7 20  4  0
  9  2  4  0
  9  7  4  0
 10 17  1  0
 11  1  4  0
 12  8  2  0
 12 22  1  0
 13 12  1  0
 14 18  1  0
 14 19  1  0
 16  7  1  0
 16  3  1  0
 18 21  2  0
 19 17  1  0
 20  1  4  0
 21  5  1  0
 21 10  1  0
 22  6  1  0
 22 23  1  0
M  END
$$$$

     RDKit          3D

 27 30  0  0  0  0  0  0  0  0999 V2000
    9.3840   43.9413   49.1296 N   0  0  0  0  0  0  0  0  0  0  0  0
    4.0929   42.5591   46.4571 C   0  0  0  0  0  0  0  0  0  0  0  0
    7.4162   43.5107   47.8481 N   0  0  0  0  0  0  0  0  0  0  0  0
    7.8745   46.8924   54.2151 C   0  0  0  0  0  0  0  0  0  0  0  0
    9.1367   47.3918   54.2400 N   0  0  0  0  0  0  0  0  0  0  0  0
    7.5539   46.0776   53.1041 C   0  0  0  0  0  0  0  0  0  0  0  0
    6.0371   43.1288   47.7934 C   0  0  0  0  0  0  0  0  0  0  0  0
    6.3492   45.2608   50.1486 O   0  0  0  0  0  0  0  0  0  0  0  0
    7.5241   44.8142   50.0774 C   0  0  0  0  0  0  0  0  0  0  0  0
    5.1191   45.5226   53.7487 C   0  0  0  0  0  0  0  0  0  0  0  0
    4.0051   44.7387   53.4277 C   0  0  0  0  0  0  0  0  0  0  0  0
    3.3665   42.2903   47.6205 C   0  0  0  0  0  0  0  0  0  0  0  0
    8.6409   45.1446   50.9481 C   0  0  0  0  0  0  0  0  0  0  0  0
    6.2941   45.4113   52.9339 N   0  0  0  0  0  0  0  0  0  0  0  0
    2.7746   45.6944   55.2806 C   0  0  0  0  0  0  0  0  0  0  0  0
    9.8612   46.8029   52.8675 S   0  0  0  0  0  0  0  0  0  0  0  0
    5.0482   46.3986   54.8426 C   0  0  0  0  0  0  0  0  0  0  0  0
    9.7101   44.6243   50.3439 C   0  0  0  0  0  0  0  0  0  0  0  0
    5.4262   42.9712   46.5444 C   0  0  0  0  0  0  0  0  0  0  0  0
    1.5328   45.7836   56.0918 C   0  0  0  0  0  0  0  0  0  0  0  0
    2.8364   44.8223   54.1905 C   0  0  0  0  0  0  0  0  0  0  0  0
    3.9751   42.4281   48.8710 C   0  0  0  0  0  0  0  0  0  0  0  0
   11.0400   44.6927   50.8490 N   0  0  0  0  0  0  0  0  0  0  0  0
    8.1019   44.0331   48.9925 C   0  0  0  0  0  0  0  0  0  0  0  0
    3.8806   46.4835   55.6065 C   0  0  0  0  0  0  0  0  0  0  0  0
    8.6106   45.9174   52.2084 C   0  0  0  0  0  0  0  0  0  0  0  0
    5.3081   42.8396   48.9570 C   0  0  0  0  0  0  0  0  0  0  0  0
  1 18  1  0
  2 12  4  0
  3  7  1  0
  3 24  1  0
  4  5  4  0
  6  4  4  0
  7 27  4  0
  9  8  2  0
  9 13  1  0
 10 17  4  0
 11 10  4  0
 11 21  4  0
 12 22  4  0
 13 26  1  0
 14  6  1  0
 14 10  1  0
 15 25  4  0
 15 20  1  0
 16  5  4  0
 17 25  4  0
 18 23  1  0
 18 13  2  0
 19  2  4  0
 19  7  4  0
 21 15  4  0
 24  1  2  0
 24  9  1  0
 26 16  4  0
 26  6  4  0
 27 22  4  0
M  END
$$$$

     RDKit          3D

 36 39  0  0  0  0  0  0  0  0999 V2000
    3.3531   43.5835   53.9015 C   0  0  0  0  0  0  0  0  0  0  0  0
    7.0896   47.2867   53.9372 C   0  0  0  0  0  0  0  0  0  0  0  0
    2.1445   45.7466   53.9859 C   0  0  0  0  0  0  0  0  0  0  0  0
    7.2929   44.1174   50.6548 S   0  0  0  0  0  0  0  0  0  0  0  0
    8.5332   44.8327   51.7322 C   0  0  0  0  0  0  0  0  0  0  0  0
    1.1967   44.6405   54.4211 C   0  0  0  0  0  0  0  0  0  0  0  0
    5.8594   45.1795   53.3685 C   0  0  0  0  0  0  0  0  0  0  0  0
    3.4470   45.0600   53.7837 C   0  0  0  0  0  0  0  0  0  0  0  0
    5.9296   41.5367   45.9237 C   0  0  0  0  0  0  0  0  0  0  0  0
    1.8672   43.3164   54.0670 C   0  0  0  0  0  0  0  0  0  0  0  0
    4.9756   41.4570   48.1506 C   0  0  0  0  0  0  0  0  0  0  0  0
    6.1432   42.0196   48.6717 C   0  0  0  0  0  0  0  0  0  0  0  0
    9.8604   44.5214   51.2125 C   0  0  0  0  0  0  0  0  0  0  0  0
    4.5446   45.7238   53.5644 N   0  0  0  0  0  0  0  0  0  0  0  0
    9.2615   46.5020   53.3255 N   0  0  0  0  0  0  0  0  0  0  0  0
    8.5950   47.5045   54.1364 C   0  0  0  0  0  0  0  0  0  0  0  0
    6.9601   46.0724   53.1459 N   0  0  0  0  0  0  0  0  0  0  0  0
    1.8127   45.8074   51.6123 O   0  0  0  0  0  0  0  0  0  0  0  0
    6.8360   40.4688   44.0064 O   0  0  0  0  0  0  0  0  0  0  0  0
    9.8401   43.8134   49.9879 N   0  0  0  0  0  0  0  0  0  0  0  0
    8.2667   45.6940   52.7304 C   0  0  0  0  0  0  0  0  0  0  0  0
    0.6467   48.1932   53.9748 O   0  0  0  0  0  0  0  0  0  0  0  0
   10.9680   44.8737   51.7758 N   0  0  0  0  0  0  0  0  0  0  0  0
   -0.3894   45.0573   56.0854 C   0  0  0  0  0  0  0  0  0  0  0  0
    8.6399   43.5426   49.5948 C   0  0  0  0  0  0  0  0  0  0  0  0
    4.8689   41.2190   46.7775 C   0  0  0  0  0  0  0  0  0  0  0  0
    8.4302   42.9148   48.3245 N   0  0  0  0  0  0  0  0  0  0  0  0
    7.2093   42.3570   47.8240 C   0  0  0  0  0  0  0  0  0  0  0  0
    0.9128   47.6143   52.7824 N   0  0  0  0  0  0  0  0  0  0  0  0
    1.0041   44.7124   55.8589 N   0  0  0  0  0  0  0  0  0  0  0  0
    1.6415   46.3828   52.7225 C   0  0  0  0  0  0  0  0  0  0  0  0
    5.7864   42.5831   43.6819 C   0  0  0  0  0  0  0  0  0  0  0  0
    0.4237   48.2456   51.5703 C   0  0  0  0  0  0  0  0  0  0  0  0
    5.7936   41.2805   44.4572 C   0  0  0  0  0  0  0  0  0  0  0  0
    6.0600   43.9352   53.4319 O   0  0  0  0  0  0  0  0  0  0  0  0
    7.1006   42.0979   46.4533 C   0  0  0  0  0  0  0  0  0  0  0  0
  1 10  1  0
  2 16  1  0
  3 31  1  0
  3  8  1  0
  3  6  1  0
  4  5  1  0
  5 21  2  3
  6 30  1  0
  6 10  1  0
  7 35  2  0
  8  1  1  0
  9 36  4  0
  9 26  4  0
 11 12  4  0
 13 23  2  0
 13  5  1  0
 14  7  1  0
 14  8  2  3
 15 16  1  0
 17  7  1  0
 17  2  1  0
 18 31  2  0
 19 34  1  0
 20 13  1  0
 21 15  1  0
 21 17  1  0
 25 20  2  0
 25  4  1  0
 26 11  4  0
 27 28  1  0
 27 25  1  0
 28 12  4  0
 29 31  1  0
 29 22  1  0
 30 24  1  0
 33 29  1  0
 34 32  1  0
 34  9  1  0
 36 28  4  0
M  END
$$$$

     RDKit          3D

 18 19  0  0  0  0  0  0  0  0999 V2000
    8.6245   45.9077   49.5066 C   0  0  0  0  0  0  0  0  0  0  0  0
    6.7556   41.3960   48.9763 C   0  0  0  0  0  0  0  0  0  0  0  0
    5.8947   39.1598   48.5980 C   0  0  0  0  0  0  0  0  0  0  0  0
    8.4288   44.6639   48.8198 N   0  0  0  0  0  0  0  0  0  0  0  0
    5.2808   40.3632   50.6072 C   0  0  0  0  0  0  0  0  0  0  0  0
    5.6485   46.0708   51.7531 C   0  0  0  0  0  0  0  0  0  0  0  0
    9.6048   47.5796   51.6683 N   0  0  0  0  0  0  0  0  0  0  0  0
    7.4032   47.4318   52.7569 N   0  0  0  0  0  0  0  0  0  0  0  0
    8.2696   47.0798   51.6744 C   0  0  0  0  0  0  0  0  0  0  0  0
    7.8000   46.2921   50.6859 C   0  0  0  0  0  0  0  0  0  0  0  0
    7.5547   42.4943   48.5296 N   0  0  0  0  0  0  0  0  0  0  0  0
    6.0562   41.4500   50.1926 C   0  0  0  0  0  0  0  0  0  0  0  0
    6.1672   46.6985   53.0133 C   0  0  0  0  0  0  0  0  0  0  0  0
    9.4804   46.7454   49.0196 N   0  0  0  0  0  0  0  0  0  0  0  0
    6.4247   45.8710   50.7293 N   0  0  0  0  0  0  0  0  0  0  0  0
    6.6703   40.2468   48.1830 C   0  0  0  0  0  0  0  0  0  0  0  0
    7.6978   43.7000   49.2773 C   0  0  0  0  0  0  0  0  0  0  0  0
    5.2002   39.2181   49.8097 C   0  0  0  0  0  0  0  0  0  0  0  0
  1 14  2  0
  1 10  1  0
  2 12  4  0
  3 16  4  0
  3 18  4  0
  4  1  1  0
  5 12  4  0
  6 13  1  0
  8 13  1  0
  9  8  1  0
  9  7  1  0
 10  9  2  0
 11  2  1  0
 11 17  1  0
 15 10  1  0
 15  6  2  0
 16  2  4  0
 17  4  2  3
 18  5  4  0
M  END
$$$$

     RDKit          3D

 28 31  0  0  0  0  0  0  0  0999 V2000
    9.5188   43.6367   49.9547 N   0  0  0  0  0  0  0  0  0  0  0  0
    2.3795   42.8084   54.4487 C   0  0  0  0  0  0  0  0  0  0  0  0
    2.7441   45.1962   53.6736 C   0  0  0  0  0  0  0  0  0  0  0  0
    3.2418   43.2531   55.6375 C   0  0  0  0  0  0  0  0  0  0  0  0
    8.3542   46.5338   50.4602 C   0  0  0  0  0  0  0  0  0  0  0  0
    8.4356   47.6691   51.2185 N   0  0  0  0  0  0  0  0  0  0  0  0
    6.7129   46.8817   52.6294 C   0  0  0  0  0  0  0  0  0  0  0  0
    2.4489   43.7594   53.2447 C   0  0  0  0  0  0  0  0  0  0  0  0
    5.4463   40.7497   46.5037 C   0  0  0  0  0  0  0  0  0  0  0  0
    4.3431   41.5926   46.6629 C   0  0  0  0  0  0  0  0  0  0  0  0
    7.4263   45.5262   50.8150 C   0  0  0  0  0  0  0  0  0  0  0  0
    6.7654   42.1883   47.9483 C   0  0  0  0  0  0  0  0  0  0  0  0
    4.0817   45.2997   54.4252 C   0  0  0  0  0  0  0  0  0  0  0  0
    4.4770   44.0153   55.1692 C   0  0  0  0  0  0  0  0  0  0  0  0
    4.4473   42.7351   47.4605 C   0  0  0  0  0  0  0  0  0  0  0  0
    5.1793   45.7335   53.5093 C   0  0  0  0  0  0  0  0  0  0  0  0
    7.6421   47.8677   52.3091 C   0  0  0  0  0  0  0  0  0  0  0  0
    5.8354   46.9095   53.6493 N   0  0  0  0  0  0  0  0  0  0  0  0
    9.1522   46.4241   49.2859 N   0  0  0  0  0  0  0  0  0  0  0  0
    7.7861   49.3390   53.2520 Cl  0  0  0  0  0  0  0  0  0  0  0  0
    6.6530   41.0488   47.1436 C   0  0  0  0  0  0  0  0  0  0  0  0
    8.0238   42.4651   48.5784 N   0  0  0  0  0  0  0  0  0  0  0  0
    6.6269   45.7696   51.8860 N   0  0  0  0  0  0  0  0  0  0  0  0
    5.6571   45.0110   52.4205 C   0  0  0  0  0  0  0  0  0  0  0  0
    7.2596   44.3177   50.0578 N   0  0  0  0  0  0  0  0  0  0  0  0
    1.0015   42.6617   54.8806 N   0  0  0  0  0  0  0  0  0  0  0  0
    8.3146   43.5242   49.4992 C   0  0  0  0  0  0  0  0  0  0  0  0
    5.6545   43.0327   48.0993 C   0  0  0  0  0  0  0  0  0  0  0  0
  2 26  1  0
  2  4  1  0
  3  8  1  0
  3 13  1  0
  4 14  1  0
  5  6  4  0
  6 17  4  0
  7 17  4  0
  7 18  4  0
  8  2  1  0
  9 21  4  0
  9 10  4  0
 10 15  4  0
 11  5  4  0
 11 23  4  0
 12 28  4  0
 13 16  1  0
 13 14  1  0
 15 28  4  0
 16 18  4  0
 17 20  1  0
 19  5  1  0
 21 12  4  0
 22 12  1  0
 22 27  1  0
 23 24  4  0
 23  7  4  0
 24 16  4  0
 25 11  1  0
 27  1  2  0
 27 25  1  0
M  END
$$$$

     RDKit          3D

 23 25  0  0  0  0  0  0  0  0999 V2000
    6.9866   41.0979   49.7840 C   0  0  0  0  0  0  0  0  0  0  0  0
    5.6363   38.8932   50.8745 C   0  0  0  0  0  0  0  0  0  0  0  0
    6.2755   38.7806   49.6371 C   0  0  0  0  0  0  0  0  0  0  0  0
    6.3539   41.1992   51.0320 C   0  0  0  0  0  0  0  0  0  0  0  0
    4.0956   47.1926   51.4381 C   0  0  0  0  0  0  0  0  0  0  0  0
    7.2733   45.9150   50.5370 C   0  0  0  0  0  0  0  0  0  0  0  0
    8.7466   45.9271   52.6624 C   0  0  0  0  0  0  0  0  0  0  0  0
    6.9520   39.8788   49.0975 C   0  0  0  0  0  0  0  0  0  0  0  0
    6.4982   44.2741   50.7415 S   0  0  0  0  0  0  0  0  0  0  0  0
    7.8335   47.5854   53.7550 N   0  0  0  0  0  0  0  0  0  0  0  0
    7.7214   43.5611   49.6276 C   0  0  0  0  0  0  0  0  0  0  0  0
    1.7879   47.2946   52.3680 C   0  0  0  0  0  0  0  0  0  0  0  0
    7.7169   42.1898   49.2088 N   0  0  0  0  0  0  0  0  0  0  0  0
    7.7378   46.4332   51.8639 C   0  0  0  0  0  0  0  0  0  0  0  0
    7.1903   47.4700   52.5820 C   0  0  0  0  0  0  0  0  0  0  0  0
    8.7778   46.6564   53.7984 N   0  0  0  0  0  0  0  0  0  0  0  0
    6.0108   48.2956   52.1922 C   0  0  0  0  0  0  0  0  0  0  0  0
    8.4115   45.7053   49.6027 C   0  0  0  0  0  0  0  0  0  0  0  0
    8.5783   44.3828   49.1275 N   0  0  0  0  0  0  0  0  0  0  0  0
    4.7883   47.6456   52.6331 N   0  0  0  0  0  0  0  0  0  0  0  0
    5.6778   40.1025   51.5739 C   0  0  0  0  0  0  0  0  0  0  0  0
    9.0912   46.6870   49.1106 N   0  0  0  0  0  0  0  0  0  0  0  0
    2.8706   46.3833   51.8221 C   0  0  0  0  0  0  0  0  0  0  0  0
  1  4  4  0
  2 21  4  0
  3  2  4  0
  4 21  4  0
  5 23  1  0
  6 14  1  0
  7 16  4  0
  8  3  4  0
  8  1  4  0
  9  6  1  0
 10 16  4  0
 11 19  2  0
 11  9  1  0
 13  1  1  0
 13 11  1  0
 14 15  4  0
 14  7  4  0
 15 10  4  0
 17 15  1  0
 17 20  1  0
 18 22  2  0
 18  6  1  0
 19 18  1  0
 20  5  1  0
 23 12  1  0
M  END
$$$$

     RDKit          3D

 27 30  0  0  0  0  0  0  0  0999 V2000
    6.6547   45.7680   51.3898 C   0  0  0  0  0  0  0  0  0  0  0  0
    8.7216   46.6732   49.8491 S   0  0  0  0  0  0  0  0  0  0  0  0
    7.8072   45.4336   50.7935 C   0  0  0  0  0  0  0  0  0  0  0  0
    4.5899   40.0093   52.1800 C   0  0  0  0  0  0  0  0  0  0  0  0
    8.2235   40.4501   51.3460 N   0  0  0  0  0  0  0  0  0  0  0  0
   10.6865   44.2075   51.2232 N   0  0  0  0  0  0  0  0  0  0  0  0
    5.7798   40.5975   51.7414 C   0  0  0  0  0  0  0  0  0  0  0  0
    1.7257   50.5494   51.0693 C   0  0  0  0  0  0  0  0  0  0  0  0
    4.2885   48.7717   51.8856 C   0  0  0  0  0  0  0  0  0  0  0  0
    3.2740   50.7456   53.0769 C   0  0  0  0  0  0  0  0  0  0  0  0
    6.9872   38.5774   52.3055 C   0  0  0  0  0  0  0  0  0  0  0  0
    9.6162   43.6613   50.4055 C   0  0  0  0  0  0  0  0  0  0  0  0
    8.3290   44.1018   50.9230 N   0  0  0  0  0  0  0  0  0  0  0  0
    7.2091   47.2968   49.0564 C   0  0  0  0  0  0  0  0  0  0  0  0
    6.9880   39.8863   51.8052 C   0  0  0  0  0  0  0  0  0  0  0  0
    5.7975   37.9896   52.7469 C   0  0  0  0  0  0  0  0  0  0  0  0
    9.5962   42.2126   50.5401 N   0  0  0  0  0  0  0  0  0  0  0  0
    6.0028   47.0689   51.1467 C   0  0  0  0  0  0  0  0  0  0  0  0
    3.0827   48.4825   51.1174 N   0  0  0  0  0  0  0  0  0  0  0  0
    5.0417   47.5451   52.0907 N   0  0  0  0  0  0  0  0  0  0  0  0
    8.4745   41.8286   51.0495 C   0  0  0  0  0  0  0  0  0  0  0  0
    1.8381   50.5871   52.5965 C   0  0  0  0  0  0  0  0  0  0  0  0
    6.2883   47.7710   50.0859 N   0  0  0  0  0  0  0  0  0  0  0  0
    7.5528   42.9515   51.3551 C   0  0  0  0  0  0  0  0  0  0  0  0
    4.5991   38.7060   52.6830 C   0  0  0  0  0  0  0  0  0  0  0  0
    3.9299   49.3787   53.2366 C   0  0  0  0  0  0  0  0  0  0  0  0
    2.7736   49.6869   50.3593 C   0  0  0  0  0  0  0  0  0  0  0  0
  1 18  1  0
  2 14  1  0
  3  1  2  0
  3  2  1  0
  4 25  4  0
  5 15  1  0
  5 21  1  0
  7  4  4  0
  7 15  4  0
  8 22  1  0
  9 20  1  0
  9 26  1  0
 11 16  4  0
 12  6  1  0
 12 13  1  0
 13  3  1  0
 14 23  1  0
 15 11  4  0
 17 12  1  0
 18 23  2  0
 18 20  1  0
 19  9  1  0
 21 17  2  0
 21 24  1  0
 22 10  1  0
 24 13  1  0
 25 16  4  0
 26 10  1  0
 27 19  1  0
 27  8  1  0
M  END
$$$$

     RDKit          3D

 28 30  0  0  0  0  0  0  0  0999 V2000
    3.6511   48.0304   51.6067 N   0  0  0  0  0  0  0  0  0  0  0  0
    6.3070   45.7313   50.8291 C   0  0  0  0  0  0  0  0  0  0  0  0
    1.7876   49.5823   52.0112 C   0  0  0  0  0  0  0  0  0  0  0  0
    7.3696   40.6803   51.0415 C   0  0  0  0  0  0  0  0  0  0  0  0
    1.7552   49.0589   53.4490 C   0  0  0  0  0  0  0  0  0  0  0  0
    0.8050   47.8774   53.6535 C   0  0  0  0  0  0  0  0  0  0  0  0
    9.5129   40.3010   49.9943 C   0  0  0  0  0  0  0  0  0  0  0  0
    7.0438   43.0641   49.0998 C   0  0  0  0  0  0  0  0  0  0  0  0
    6.7663   46.9822   51.4749 C   0  0  0  0  0  0  0  0  0  0  0  0
    3.4167   46.5952   51.7387 C   0  0  0  0  0  0  0  0  0  0  0  0
    8.7587   38.8384   51.7695 C   0  0  0  0  0  0  0  0  0  0  0  0
    1.2019   46.6092   52.8944 C   0  0  0  0  0  0  0  0  0  0  0  0
    5.7386   43.1580   50.3305 S   0  0  0  0  0  0  0  0  0  0  0  0
    6.0142   48.1840   51.2928 N   0  0  0  0  0  0  0  0  0  0  0  0
    8.1862   44.8321   52.9983 N   0  0  0  0  0  0  0  0  0  0  0  0
    9.7253   39.1975   50.8267 C   0  0  0  0  0  0  0  0  0  0  0  0
    8.8109   45.9415   52.2961 C   0  0  0  0  0  0  0  0  0  0  0  0
    6.5234   44.4788   51.2495 C   0  0  0  0  0  0  0  0  0  0  0  0
    7.5799   39.5811   51.8788 C   0  0  0  0  0  0  0  0  0  0  0  0
    7.8770   47.0486   52.1461 N   0  0  0  0  0  0  0  0  0  0  0  0
    2.6817   46.2713   53.0366 C   0  0  0  0  0  0  0  0  0  0  0  0
    8.3364   41.0534   50.0981 C   0  0  0  0  0  0  0  0  0  0  0  0
    2.4435   48.6096   51.0310 C   0  0  0  0  0  0  0  0  0  0  0  0
    8.1550   42.1616   49.2036 N   0  0  0  0  0  0  0  0  0  0  0  0
    6.7348   43.0183   53.2715 N   0  0  0  0  0  0  0  0  0  0  0  0
    4.7151   48.2198   50.6311 C   0  0  0  0  0  0  0  0  0  0  0  0
    7.1843   44.1515   52.5359 C   0  0  0  0  0  0  0  0  0  0  0  0
    6.9719   43.8481   48.0769 N   0  0  0  0  0  0  0  0  0  0  0  0
  1 26  1  0
  1 10  1  0
  2  9  1  0
  3  5  1  0
  3 23  1  0
  5  6  1  0
  6 12  1  0
  7 22  4  0
  8 28  2  0
  8 13  1  0
  9 20  2  0
  9 14  1  0
 11 19  4  0
 12 21  1  0
 13 18  1  0
 14 26  1  0
 15 17  1  0
 16  7  4  0
 16 11  4  0
 17 20  1  0
 18 27  1  0
 18  2  2  0
 19  4  4  0
 21 10  1  0
 22  4  4  0
 23  1  1  0
 24 22  1  0
 24  8  1  0
 25 27  1  0
 27 15  2  0
M  END
$$$$

     RDKit          3D

 23 25  0  0  0  0  0  0  0  0999 V2000
    3.4602   45.1933   54.4981 C   0  0  0  0  0  0  0  0  0  0  0  0
    4.9313   40.3087   46.9359 C   0  0  0  0  0  0  0  0  0  0  0  0
    8.3585   45.6952   51.1834 N   0  0  0  0  0  0  0  0  0  0  0  0
   10.5199   45.6545   50.2244 N   0  0  0  0  0  0  0  0  0  0  0  0
    2.5171   45.9028   53.8624 C   0  0  0  0  0  0  0  0  0  0  0  0
    3.9977   41.6240   48.7416 C   0  0  0  0  0  0  0  0  0  0  0  0
    6.1593   40.9580   47.0967 C   0  0  0  0  0  0  0  0  0  0  0  0
    9.6627   47.2894   52.3600 O   0  0  0  0  0  0  0  0  0  0  0  0
    5.0033   45.6982   52.5814 C   0  0  0  0  0  0  0  0  0  0  0  0
    9.3167   45.1835   50.2338 C   0  0  0  0  0  0  0  0  0  0  0  0
    2.8205   46.6035   52.5632 C   0  0  0  0  0  0  0  0  0  0  0  0
    4.8829   45.1404   54.0027 C   0  0  0  0  0  0  0  0  0  0  0  0
    7.8183   43.6039   49.1990 C   0  0  0  0  0  0  0  0  0  0  0  0
    8.5700   46.6933   52.1695 C   0  0  0  0  0  0  0  0  0  0  0  0
    4.2406   46.9403   52.4661 N   0  0  0  0  0  0  0  0  0  0  0  0
    5.2252   42.2733   48.9025 C   0  0  0  0  0  0  0  0  0  0  0  0
    7.5788   42.5918   48.2237 N   0  0  0  0  0  0  0  0  0  0  0  0
    8.9820   44.1590   49.2867 N   0  0  0  0  0  0  0  0  0  0  0  0
    6.4340   45.9387   52.2373 C   0  0  0  0  0  0  0  0  0  0  0  0
    6.3133   41.9422   48.0790 C   0  0  0  0  0  0  0  0  0  0  0  0
    7.3240   46.9299   52.9391 C   0  0  0  0  0  0  0  0  0  0  0  0
    3.8509   40.6417   47.7581 C   0  0  0  0  0  0  0  0  0  0  0  0
    7.0288   45.2844   51.2905 N   0  0  0  0  0  0  0  0  0  0  0  0
  1 12  1  0
  2  7  4  0
  2 22  4  0
  3 14  1  0
  5  1  2  0
  7 20  4  0
  9 19  1  0
  9 12  1  0
 10  4  2  0
 10  3  1  0
 11 15  1  0
 11  5  1  0
 13 18  2  3
 14  8  2  0
 14 21  1  0
 15  9  1  0
 16  6  4  0
 17 20  1  0
 17 13  1  0
 18 10  1  0
 19 21  1  0
 20 16  4  0
 22  6  4  0
 23  3  1  0
 23 19  2  0
M  END
$$$$

     RDKit          3D

 27 28  0  0  0  0  0  0  0  0999 V2000
    8.9095   46.0909   51.4778 C   0  0  0  0  0  0  0  0  0  0  0  0
    6.1989   45.8648   52.2026 C   0  0  0  0  0  0  0  0  0  0  0  0
    6.9654   47.8190   53.9763 C   0  0  0  0  0  0  0  0  0  0  0  0
    2.9489   46.5621   54.0508 C   0  0  0  0  0  0  0  0  0  0  0  0
    4.6023   41.1401   49.8535 C   0  0  0  0  0  0  0  0  0  0  0  0
   10.2771   46.4203   52.5672 O   0  0  0  0  0  0  0  0  0  0  0  0
    3.4431   44.9430   52.1615 C   0  0  0  0  0  0  0  0  0  0  0  0
    6.0527   41.4914   47.4074 C   0  0  0  0  0  0  0  0  0  0  0  0
    7.8814   42.4357   48.5865 N   0  0  0  0  0  0  0  0  0  0  0  0
    1.5580   45.9487   53.9053 C   0  0  0  0  0  0  0  0  0  0  0  0
    3.9030   45.9547   53.1162 N   0  0  0  0  0  0  0  0  0  0  0  0
    7.8857   47.2756   53.0798 C   0  0  0  0  0  0  0  0  0  0  0  0
    9.8768   45.6936   51.4544 C   0  0  0  0  0  0  0  0  0  0  0  0
    5.7296   41.7897   49.6503 C   0  0  0  0  0  0  0  0  0  0  0  0
    7.0615   42.4509   49.7857 C   0  0  0  0  0  0  0  0  0  0  0  0
    8.2803   44.1297   50.1168 C   0  0  0  0  0  0  0  0  0  0  0  0
    7.4826   46.3105   52.2127 N   0  0  0  0  0  0  0  0  0  0  0  0
    5.2678   46.4071   53.1003 C   0  0  0  0  0  0  0  0  0  0  0  0
    1.6598   44.4257   53.9357 C   0  0  0  0  0  0  0  0  0  0  0  0
    8.5901   43.2590   49.4203 N   0  0  0  0  0  0  0  0  0  0  0  0
    3.9028   40.9127   48.5657 C   0  0  0  0  0  0  0  0  0  0  0  0
    7.9051   45.1825   50.9591 N   0  0  0  0  0  0  0  0  0  0  0  0
   10.7600   45.2151   50.6444 N   0  0  0  0  0  0  0  0  0  0  0  0
    5.6814   47.3740   53.9669 N   0  0  0  0  0  0  0  0  0  0  0  0
    4.5618   41.1097   47.3968 C   0  0  0  0  0  0  0  0  0  0  0  0
    6.4229   42.5278   48.5052 C   0  0  0  0  0  0  0  0  0  0  0  0
    2.6175   43.8666   52.8719 C   0  0  0  0  0  0  0  0  0  0  0  0
  2 17  4  0
  2 18  4  0
  4 10  1  0
  5 14  2  0
  7 27  1  0
  7 11  1  0
  9 26  1  0
 10 19  1  0
 11 18  1  0
 11  4  1  0
 12  3  4  0
 13  6  1  0
 15  9  1  0
 15 14  1  0
 16 22  1  0
 17 12  4  0
 18 24  4  0
 20 16  3  0
 21  5  1  0
 22  1  1  0
 23 13  2  0
 24  3  4  0
 25  8  1  0
 25 21  2  0
 26  8  1  0
 26 15  1  0
 26 14  1  0
 27 19  1  0
M  END
$$$$

     RDKit          3D

 36 40  0  0  0  0  0  0  0  0999 V2000
    6.6385   45.2259   49.7720 S   0  0  0  0  0  0  0  0  0  0  0  0
    9.1758   48.7912   54.0062 Cl  0  0  0  0  0  0  0  0  0  0  0  0
    4.0639   40.1191   49.3617 C   0  0  0  0  0  0  0  0  0  0  0  0
    4.8034   40.9500   50.2088 C   0  0  0  0  0  0  0  0  0  0  0  0
    8.6283   45.8755   51.2674 C   0  0  0  0  0  0  0  0  0  0  0  0
    3.5458   44.8598   51.2519 C   0  0  0  0  0  0  0  0  0  0  0  0
    4.7257   46.3619   53.4817 C   0  0  0  0  0  0  0  0  0  0  0  0
    2.2338   39.9884   46.6950 N   0  0  0  0  0  0  0  0  0  0  0  0
    2.5183   47.1769   53.5658 F   0  0  0  0  0  0  0  0  0  0  0  0
    1.6386   45.5410   55.4605 N   0  0  0  0  0  0  0  0  0  0  0  0
    5.9292   41.9034   48.2890 C   0  0  0  0  0  0  0  0  0  0  0  0
    2.9453   45.5521   50.2147 F   0  0  0  0  0  0  0  0  0  0  0  0
    5.0790   46.5990   52.0839 N   0  0  0  0  0  0  0  0  0  0  0  0
    1.4925   44.5686   52.5105 C   0  0  0  0  0  0  0  0  0  0  0  0
    8.5111   46.6786   52.4062 C   0  0  0  0  0  0  0  0  0  0  0  0
    7.4634   43.6550   50.1039 C   0  0  0  0  0  0  0  0  0  0  0  0
    3.4583   39.3061   47.0753 C   0  0  0  0  0  0  0  0  0  0  0  0
    4.2608   40.1756   47.9780 C   0  0  0  0  0  0  0  0  0  0  0  0
    8.6297   43.5890   50.9482 N   0  0  0  0  0  0  0  0  0  0  0  0
    3.5645   43.5003   50.9319 O   0  0  0  0  0  0  0  0  0  0  0  0
   10.3908   47.3217   50.4957 N   0  0  0  0  0  0  0  0  0  0  0  0
    2.7375   45.0759   52.5198 C   0  0  0  0  0  0  0  0  0  0  0  0
    9.6056   46.2281   50.2984 C   0  0  0  0  0  0  0  0  0  0  0  0
    5.7207   45.4081   54.1538 C   0  0  0  0  0  0  0  0  0  0  0  0
    5.7390   41.8442   49.6781 C   0  0  0  0  0  0  0  0  0  0  0  0
    0.4125   44.6760   53.5136 C   0  0  0  0  0  0  0  0  0  0  0  0
    7.6921   44.6888   51.1802 C   0  0  0  0  0  0  0  0  0  0  0  0
    4.9904   45.3322   51.3667 C   0  0  0  0  0  0  0  0  0  0  0  0
    6.4835   42.6834   50.5648 N   0  0  0  0  0  0  0  0  0  0  0  0
    9.3311   47.7921   52.5780 C   0  0  0  0  0  0  0  0  0  0  0  0
    0.4601   45.1185   54.7729 C   0  0  0  0  0  0  0  0  0  0  0  0
    2.9967   45.3313   54.9909 C   0  0  0  0  0  0  0  0  0  0  0  0
   10.2755   48.1018   51.6020 C   0  0  0  0  0  0  0  0  0  0  0  0
    3.2313   45.9896   53.6314 C   0  0  0  0  0  0  0  0  0  0  0  0
    5.1901   41.0728   47.4418 C   0  0  0  0  0  0  0  0  0  0  0  0
    9.7831   45.4614   49.1102 N   0  0  0  0  0  0  0  0  0  0  0  0
  1 27  1  0
  3  4  4  0
  5 23  4  0
  5 15  4  0
  6 12  1  0
  6 22  1  0
  7 24  1  0
  8 17  1  0
 11 25  4  0
 13  7  1  0
 14 26  1  0
 15 30  4  0
 16 29  1  0
 16 19  1  0
 16  1  1  0
 16 27  1  0
 17 18  1  0
 18  3  4  0
 19 27  1  0
 20  6  1  0
 21 33  4  0
 22 14  2  0
 22 34  1  0
 23 21  4  0
 25  4  4  0
 26 31  2  0
 27  5  1  0
 28  6  1  0
 28 13  1  0
 29 25  1  0
 30 33  4  0
 30  2  1  0
 31 10  1  0
 32 10  1  0
 34  9  1  0
 34  7  1  0
 34 32  1  0
 35 11  4  0
 35 18  4  0
 36 23  1  0
M  END
$$$$

     RDKit          3D

 27 29  0  0  0  0  0  0  0  0999 V2000
    4.4870   43.5106   48.9971 C   0  0  0  0  0  0  0  0  0  0  0  0
    8.7112   44.8186   49.2326 N   0  0  0  0  0  0  0  0  0  0  0  0
    2.9305   44.2984   55.4974 Cl  0  0  0  0  0  0  0  0  0  0  0  0
    7.2799   45.4279   51.5237 C   0  0  0  0  0  0  0  0  0  0  0  0
    4.5258   45.9108   54.0602 C   0  0  0  0  0  0  0  0  0  0  0  0
    3.1839   43.0453   48.7999 C   0  0  0  0  0  0  0  0  0  0  0  0
    5.1783   42.4624   46.9324 C   0  0  0  0  0  0  0  0  0  0  0  0
    9.3024   46.5400   52.4496 N   0  0  0  0  0  0  0  0  0  0  0  0
    3.8754   41.9957   46.7328 C   0  0  0  0  0  0  0  0  0  0  0  0
    5.1587   45.4845   52.9805 C   0  0  0  0  0  0  0  0  0  0  0  0
    9.6787   47.0610   54.6837 O   0  0  0  0  0  0  0  0  0  0  0  0
    6.8448   43.6846   48.2253 N   0  0  0  0  0  0  0  0  0  0  0  0
    4.2812   44.6349   52.1894 C   0  0  0  0  0  0  0  0  0  0  0  0
    3.1343   45.3778   54.0931 C   0  0  0  0  0  0  0  0  0  0  0  0
    5.4955   43.2200   48.0657 C   0  0  0  0  0  0  0  0  0  0  0  0
    9.2488   46.2279   53.8451 C   0  0  0  0  0  0  0  0  0  0  0  0
    6.6831   44.7257   50.4704 C   0  0  0  0  0  0  0  0  0  0  0  0
    7.4168   44.4157   49.3210 C   0  0  0  0  0  0  0  0  0  0  0  0
    3.1232   44.5778   52.8296 C   0  0  0  0  0  0  0  0  0  0  0  0
    1.7401   43.6806   52.2370 Cl  0  0  0  0  0  0  0  0  0  0  0  0
    9.3263   45.5065   50.2304 C   0  0  0  0  0  0  0  0  0  0  0  0
   10.6859   45.9007   50.0720 N   0  0  0  0  0  0  0  0  0  0  0  0
    5.2201   46.9694   55.2768 Cl  0  0  0  0  0  0  0  0  0  0  0  0
    8.6338   45.8050   51.4134 C   0  0  0  0  0  0  0  0  0  0  0  0
    8.7687   44.9638   54.2939 N   0  0  0  0  0  0  0  0  0  0  0  0
    6.5187   45.8226   52.6757 N   0  0  0  0  0  0  0  0  0  0  0  0
    2.8781   42.2869   47.6673 C   0  0  0  0  0  0  0  0  0  0  0  0
  2 21  4  0
  4 24  4  0
  4 26  1  0
  5 14  1  0
  5 23  1  0
  6  1  4  0
  7  9  4  0
  7 15  4  0
  8 16  1  0
  9 27  4  0
 10  5  2  0
 12 15  1  0
 12 18  1  0
 13 10  1  0
 13 19  2  0
 14  3  1  0
 15  1  4  0
 16 25  1  0
 16 11  2  0
 17  4  4  0
 18  2  4  0
 18 17  4  0
 19 14  1  0
 20 19  1  0
 21 22  1  0
 21 24  4  0
 24  8  1  0
 26 10  1  0
 27  6  4  0
M  END
$$$$

     RDKit          3D

 18 19  0  0  0  0  0  0  0  0999 V2000
    9.2972   45.4335   51.5694 C   0  0  0  0  0  0  0  0  0  0  0  0
    8.1488   46.8339   52.6668 C   0  0  0  0  0  0  0  0  0  0  0  0
    4.0912   40.6957   49.0214 C   0  0  0  0  0  0  0  0  0  0  0  0
    9.3942   46.3141   52.5872 N   0  0  0  0  0  0  0  0  0  0  0  0
   10.3469   44.5430   51.2069 N   0  0  0  0  0  0  0  0  0  0  0  0
    8.0115   45.4314   51.0621 C   0  0  0  0  0  0  0  0  0  0  0  0
    5.7235   42.3459   49.7066 C   0  0  0  0  0  0  0  0  0  0  0  0
    6.3970   42.2016   48.4837 C   0  0  0  0  0  0  0  0  0  0  0  0
    7.4597   44.5751   50.0524 N   0  0  0  0  0  0  0  0  0  0  0  0
    4.5737   41.5972   49.9736 C   0  0  0  0  0  0  0  0  0  0  0  0
    8.1803   43.9828   48.9645 C   0  0  0  0  0  0  0  0  0  0  0  0
    7.5876   42.9409   48.1790 N   0  0  0  0  0  0  0  0  0  0  0  0
    9.2855   44.5125   48.5559 N   0  0  0  0  0  0  0  0  0  0  0  0
    7.7791   47.8130   53.6328 N   0  0  0  0  0  0  0  0  0  0  0  0
    7.2884   46.3102   51.7711 N   0  0  0  0  0  0  0  0  0  0  0  0
    4.7598   40.5422   47.8039 C   0  0  0  0  0  0  0  0  0  0  0  0
    5.8747   46.6150   51.6203 C   0  0  0  0  0  0  0  0  0  0  0  0
    5.9098   41.2920   47.5383 C   0  0  0  0  0  0  0  0  0  0  0  0
  1  4  4  0
  2 14  1  0
  3 10  4  0
  4  2  4  0
  5  1  1  0
  6  1  4  0
  6 15  4  0
  7 10  4  0
  8  7  4  0
  9  6  1  0
 11 13  2  0
 11  9  1  0
 12  8  1  0
 12 11  1  0
 15 17  1  0
 15  2  4  0
 16  3  4  0
 18 16  4  0
 18  8  4  0
M  END
$$$$

     RDKit          3D

 23 24  0  0  0  0  0  0  0  0999 V2000
    8.6932   48.0322   53.5040 O   0  0  0  0  0  0  0  0  0  0  0  0
    3.1654   48.3019   52.1387 C   0  0  0  0  0  0  0  0  0  0  0  0
    8.9382   46.7907   51.5589 N   0  0  0  0  0  0  0  0  0  0  0  0
    9.2111   44.3639   48.8864 N   0  0  0  0  0  0  0  0  0  0  0  0
    6.7231   41.6514   49.3462 C   0  0  0  0  0  0  0  0  0  0  0  0
    5.8495   47.1276   52.5305 N   0  0  0  0  0  0  0  0  0  0  0  0
    4.6474   46.3807   52.8672 C   0  0  0  0  0  0  0  0  0  0  0  0
    3.2825   44.4065   52.1783 C   0  0  0  0  0  0  0  0  0  0  0  0
    5.5031   39.5552   49.2247 C   0  0  0  0  0  0  0  0  0  0  0  0
    4.5528   41.4329   50.4187 C   0  0  0  0  0  0  0  0  0  0  0  0
    6.9648   46.4539   53.1744 C   0  0  0  0  0  0  0  0  0  0  0  0
    8.2445   47.1094   52.7758 C   0  0  0  0  0  0  0  0  0  0  0  0
    6.6240   40.3272   48.9041 C   0  0  0  0  0  0  0  0  0  0  0  0
    5.6741   42.2029   50.0969 C   0  0  0  0  0  0  0  0  0  0  0  0
    4.2499   45.4754   51.7072 C   0  0  0  0  0  0  0  0  0  0  0  0
    4.4682   40.1077   49.9840 C   0  0  0  0  0  0  0  0  0  0  0  0
    8.7610   45.7679   50.7719 C   0  0  0  0  0  0  0  0  0  0  0  0
    7.8734   42.4188   48.9685 N   0  0  0  0  0  0  0  0  0  0  0  0
    8.2841   43.6898   49.4893 C   0  0  0  0  0  0  0  0  0  0  0  0
    3.5186   47.3348   53.2591 C   0  0  0  0  0  0  0  0  0  0  0  0
   10.4337   46.3823   49.1353 N   0  0  0  0  0  0  0  0  0  0  0  0
    9.5265   45.5673   49.5615 C   0  0  0  0  0  0  0  0  0  0  0  0
    7.6540   44.3856   51.0416 S   0  0  0  0  0  0  0  0  0  0  0  0
  2 20  1  0
  3 12  1  0
  4 22  1  0
  5 14  4  0
  6 11  1  0
  6  7  1  0
  7 15  1  0
  9 13  4  0
  9 16  4  0
 12 11  1  0
 12  1  2  0
 13  5  4  0
 14 10  4  0
 15  8  1  0
 16 10  4  0
 17  3  2  3
 18  5  1  0
 18 19  1  0
 19  4  2  0
 19 23  1  0
 20  7  1  0
 22 21  2  0
 22 17  1  0
 23 17  1  0
M  END
$$$$

     RDKit          3D

 18 19  0  0  0  0  0  0  0  0999 V2000
    5.2170   46.6612   51.1877 N   0  0  0  0  0  0  0  0  0  0  0  0
    6.9434   45.2997   50.2092 N   0  0  0  0  0  0  0  0  0  0  0  0
    9.0494   45.0020   51.2921 C   0  0  0  0  0  0  0  0  0  0  0  0
    7.3443   46.3566   52.2708 N   0  0  0  0  0  0  0  0  0  0  0  0
    8.1839   44.7400   50.2116 C   0  0  0  0  0  0  0  0  0  0  0  0
    9.6113   46.1926   53.7106 Cl  0  0  0  0  0  0  0  0  0  0  0  0
    5.4144   42.1994   47.8804 C   0  0  0  0  0  0  0  0  0  0  0  0
    8.5864   43.8892   49.0667 C   0  0  0  0  0  0  0  0  0  0  0  0
    6.5219   46.0970   51.2234 C   0  0  0  0  0  0  0  0  0  0  0  0
    9.7965   43.9568   48.6183 N   0  0  0  0  0  0  0  0  0  0  0  0
    4.0674   41.3390   49.6998 C   0  0  0  0  0  0  0  0  0  0  0  0
    8.5936   45.8285   52.3270 C   0  0  0  0  0  0  0  0  0  0  0  0
    5.0621   41.7069   50.6098 C   0  0  0  0  0  0  0  0  0  0  0  0
    6.2315   42.3226   50.1548 C   0  0  0  0  0  0  0  0  0  0  0  0
    4.2446   41.5828   48.3349 C   0  0  0  0  0  0  0  0  0  0  0  0
    6.4080   42.5844   48.7869 C   0  0  0  0  0  0  0  0  0  0  0  0
   10.3486   44.4157   51.3613 N   0  0  0  0  0  0  0  0  0  0  0  0
    7.6099   43.1846   48.2877 N   0  0  0  0  0  0  0  0  0  0  0  0
  2  9  4  0
  3 12  4  0
  5  2  4  0
  5  3  4  0
  7 15  4  0
  7 16  4  0
  8 10  2  0
  8  5  1  0
  9  1  1  0
  9  4  4  0
 11 13  4  0
 12  4  4  0
 12  6  1  0
 13 14  4  0
 15 11  4  0
 16 14  4  0
 17  3  1  0
 18 16  1  0
 18  8  1  0
M  END
$$$$

     RDKit          3D

 23 25  0  0  0  0  0  0  0  0999 V2000
    6.1029   45.9243   53.5676 C   0  0  0  0  0  0  0  0  0  0  0  0
    5.2624   42.0472   49.7971 C   0  0  0  0  0  0  0  0  0  0  0  0
    1.8662   46.2778   52.9993 C   0  0  0  0  0  0  0  0  0  0  0  0
    5.9751   40.9485   47.7656 C   0  0  0  0  0  0  0  0  0  0  0  0
    8.3540   45.1999   51.4791 C   0  0  0  0  0  0  0  0  0  0  0  0
   10.0942   46.4371   50.2160 N   0  0  0  0  0  0  0  0  0  0  0  0
    3.8390   45.6336   54.3894 C   0  0  0  0  0  0  0  0  0  0  0  0
    3.9712   40.2060   48.9033 C   0  0  0  0  0  0  0  0  0  0  0  0
    9.0867   45.4356   50.3144 C   0  0  0  0  0  0  0  0  0  0  0  0
    7.3083   42.8054   48.6105 N   0  0  0  0  0  0  0  0  0  0  0  0
    3.3342   46.1602   53.1971 C   0  0  0  0  0  0  0  0  0  0  0  0
    8.5286   45.8684   52.7853 C   0  0  0  0  0  0  0  0  0  0  0  0
    9.6191   46.4402   53.0476 O   0  0  0  0  0  0  0  0  0  0  0  0
    4.1635   41.1874   49.8791 C   0  0  0  0  0  0  0  0  0  0  0  0
    7.2942   43.9281   51.1620 S   0  0  0  0  0  0  0  0  0  0  0  0
    7.5135   45.8258   53.7963 N   0  0  0  0  0  0  0  0  0  0  0  0
    5.5911   46.4712   52.3803 C   0  0  0  0  0  0  0  0  0  0  0  0
    8.7707   44.6448   49.2545 N   0  0  0  0  0  0  0  0  0  0  0  0
    4.8765   40.0873   47.8455 C   0  0  0  0  0  0  0  0  0  0  0  0
    4.2105   46.5834   52.1940 C   0  0  0  0  0  0  0  0  0  0  0  0
    7.7890   43.7689   49.5579 C   0  0  0  0  0  0  0  0  0  0  0  0
    5.2202   45.5210   54.5751 C   0  0  0  0  0  0  0  0  0  0  0  0
    6.1807   41.9290   48.7429 C   0  0  0  0  0  0  0  0  0  0  0  0
  1 22  4  0
  4 23  4  0
  5 12  1  0
  8 14  4  0
  9  6  1  0
  9  5  4  0
 10 23  1  0
 10 21  1  0
 11  3  1  0
 11  7  4  0
 12 13  2  0
 12 16  1  0
 14  2  4  0
 15  5  4  0
 16  1  1  0
 17 20  4  0
 17  1  4  0
 18  9  4  0
 19  4  4  0
 19  8  4  0
 20 11  4  0
 21 18  4  0
 21 15  4  0
 22  7  4  0
 23  2  4  0
M  END
$$$$

     RDKit          3D

 27 30  0  0  0  0  0  0  0  0999 V2000
    7.6615   43.5713   48.8795 C   0  0  0  0  0  0  0  0  0  0  0  0
    3.8754   46.6231   54.8894 C   0  0  0  0  0  0  0  0  0  0  0  0
    4.0929   40.4071   46.7769 C   0  0  0  0  0  0  0  0  0  0  0  0
    2.0152   45.0508   53.5074 C   0  0  0  0  0  0  0  0  0  0  0  0
    1.5996   45.8441   54.5760 C   0  0  0  0  0  0  0  0  0  0  0  0
    8.1711   45.9148   52.3449 N   0  0  0  0  0  0  0  0  0  0  0  0
    6.4390   40.9214   46.4919 C   0  0  0  0  0  0  0  0  0  0  0  0
    9.2430   47.8107   54.0610 Cl  0  0  0  0  0  0  0  0  0  0  0  0
    5.3051   40.1962   46.1177 C   0  0  0  0  0  0  0  0  0  0  0  0
    7.7667   45.6551   50.9249 C   0  0  0  0  0  0  0  0  0  0  0  0
    5.7273   45.7748   53.3521 C   0  0  0  0  0  0  0  0  0  0  0  0
    8.9427   45.1607   50.1295 C   0  0  0  0  0  0  0  0  0  0  0  0
    7.5725   42.5750   47.8641 N   0  0  0  0  0  0  0  0  0  0  0  0
    5.0262   42.9695   49.2002 F   0  0  0  0  0  0  0  0  0  0  0  0
    6.0573   44.9234   52.3930 N   0  0  0  0  0  0  0  0  0  0  0  0
    5.1456   42.0725   48.1904 C   0  0  0  0  0  0  0  0  0  0  0  0
    6.7534   46.7105   53.9533 C   0  0  0  0  0  0  0  0  0  0  0  0
    2.5278   46.6262   55.2642 C   0  0  0  0  0  0  0  0  0  0  0  0
    3.3585   45.0418   53.1270 C   0  0  0  0  0  0  0  0  0  0  0  0
    6.3749   41.8630   47.5256 C   0  0  0  0  0  0  0  0  0  0  0  0
    7.4240   44.7308   51.8762 C   0  0  0  0  0  0  0  0  0  0  0  0
    4.0146   41.3428   47.8105 C   0  0  0  0  0  0  0  0  0  0  0  0
    4.7347   47.3933   55.6009 F   0  0  0  0  0  0  0  0  0  0  0  0
   10.0838   45.7557   50.2488 N   0  0  0  0  0  0  0  0  0  0  0  0
    8.7909   44.1533   49.1221 N   0  0  0  0  0  0  0  0  0  0  0  0
    7.9802   46.7737   53.4358 C   0  0  0  0  0  0  0  0  0  0  0  0
    4.3102   45.8244   53.8046 C   0  0  0  0  0  0  0  0  0  0  0  0
  1 25  2  3
  2 18  4  0
  2 23  1  0
  3 22  4  0
  4  5  4  0
  5 18  4  0
  6 26  1  0
  7 20  4  0
  9  7  4  0
  9  3  4  0
 10 12  1  0
 10 21  1  0
 10  6  1  0
 11 27  1  0
 11 17  1  0
 12 24  2  0
 13 20  1  0
 13  1  1  0
 15 11  2  0
 16 22  4  0
 16 14  1  0
 19  4  4  0
 19 27  4  0
 20 16  4  0
 21 15  1  0
 21  6  1  0
 25 12  1  0
 26 17  2  0
 26  8  1  0
 27  2  4  0
M  END
$$$$

     RDKit          3D

 23 25  0  0  0  0  0  0  0  0999 V2000
    5.0574   47.3756   56.9064 C   0  0  0  0  0  0  0  0  0  0  0  0
    7.3073   39.6809   45.6346 C   0  0  0  0  0  0  0  0  0  0  0  0
    7.8920   44.4096   49.4059 N   0  0  0  0  0  0  0  0  0  0  0  0
    5.4184   45.9469   56.5090 C   0  0  0  0  0  0  0  0  0  0  0  0
    6.1973   40.7165   47.9815 C   0  0  0  0  0  0  0  0  0  0  0  0
    6.5171   44.5114   51.3232 N   0  0  0  0  0  0  0  0  0  0  0  0
    7.3217   43.1866   48.9453 C   0  0  0  0  0  0  0  0  0  0  0  0
    5.7093   39.5210   47.4460 C   0  0  0  0  0  0  0  0  0  0  0  0
    8.1469   46.3154   50.9921 C   0  0  0  0  0  0  0  0  0  0  0  0
    5.9507   44.9785   52.5595 C   0  0  0  0  0  0  0  0  0  0  0  0
    5.7932   46.2672   52.8823 C   0  0  0  0  0  0  0  0  0  0  0  0
    5.0027   48.0371   54.4955 C   0  0  0  0  0  0  0  0  0  0  0  0
    6.1238   47.3267   51.8814 C   0  0  0  0  0  0  0  0  0  0  0  0
    5.2568   46.6350   54.1673 N   0  0  0  0  0  0  0  0  0  0  0  0
    4.8348   45.6226   55.1370 C   0  0  0  0  0  0  0  0  0  0  0  0
    7.4413   45.0736   50.5903 C   0  0  0  0  0  0  0  0  0  0  0  0
    7.7694   42.6295   47.8664 N   0  0  0  0  0  0  0  0  0  0  0  0
    7.5454   47.3059   51.5774 N   0  0  0  0  0  0  0  0  0  0  0  0
    5.5868   48.3605   55.8676 C   0  0  0  0  0  0  0  0  0  0  0  0
    6.2645   39.0034   46.2725 C   0  0  0  0  0  0  0  0  0  0  0  0
    7.7959   40.8767   46.1697 C   0  0  0  0  0  0  0  0  0  0  0  0
    7.2463   41.4026   47.3442 C   0  0  0  0  0  0  0  0  0  0  0  0
    9.5259   46.4528   50.6662 N   0  0  0  0  0  0  0  0  0  0  0  0
  1  4  1  0
  2 20  4  0
  3 16  1  0
  6 10  1  0
  7  3  1  0
  8  5  4  0
  9 18  2  0
 10 11  2  0
 11 13  1  0
 11 14  1  0
 12 14  1  0
 12 19  1  0
 14 15  1  0
 15  4  1  0
 16  6  2  0
 16  9  1  0
 17 22  1  0
 17  7  2  3
 18 13  1  0
 19  1  1  0
 20  8  4  0
 21  2  4  0
 21 22  4  0
 22  5  4  0
 23  9  1  0
M  END
$$$$

     RDKit          3D

 27 31  0  0  0  0  0  0  0  0999 V2000
    4.8800   46.6548   54.1500 C   0  0  0  0  0  0  0  0  0  0  0  0
    9.3051   45.0493   50.3489 C   0  0  0  0  0  0  0  0  0  0  0  0
    3.3604   42.4257   48.4542 C   0  0  0  0  0  0  0  0  0  0  0  0
    4.0869   45.7120   55.0702 C   0  0  0  0  0  0  0  0  0  0  0  0
    9.9051   46.5994   52.9573 O   0  0  0  0  0  0  0  0  0  0  0  0
    5.6116   42.9747   47.7174 C   0  0  0  0  0  0  0  0  0  0  0  0
    3.4319   42.6632   53.0487 C   0  0  0  0  0  0  0  0  0  0  0  0
    7.4148   44.1604   49.1219 C   0  0  0  0  0  0  0  0  0  0  0  0
    4.2476   43.4233   52.3189 C   0  0  0  0  0  0  0  0  0  0  0  0
    4.4238   46.4348   51.8037 O   0  0  0  0  0  0  0  0  0  0  0  0
    6.4403   44.7544   50.1287 C   0  0  0  0  0  0  0  0  0  0  0  0
    8.7036   44.3571   49.2405 N   0  0  0  0  0  0  0  0  0  0  0  0
    6.6286   45.8492   52.4948 C   0  0  0  0  0  0  0  0  0  0  0  0
    4.0260   41.9785   46.1712 C   0  0  0  0  0  0  0  0  0  0  0  0
    5.1647   45.8791   52.8483 C   0  0  0  0  0  0  0  0  0  0  0  0
    8.5255   45.4237   51.3564 C   0  0  0  0  0  0  0  0  0  0  0  0
    7.1420   45.1772   51.3356 N   0  0  0  0  0  0  0  0  0  0  0  0
    3.0556   41.9496   47.1764 C   0  0  0  0  0  0  0  0  0  0  0  0
    8.7874   46.1825   52.5553 C   0  0  0  0  0  0  0  0  0  0  0  0
    7.5502   46.4196   53.2232 N   0  0  0  0  0  0  0  0  0  0  0  0
    4.6345   42.9328   48.7242 C   0  0  0  0  0  0  0  0  0  0  0  0
    4.6651   44.5220   53.1694 C   0  0  0  0  0  0  0  0  0  0  0  0
    3.2361   43.2437   54.4236 C   0  0  0  0  0  0  0  0  0  0  0  0
    5.3000   42.4864   46.4434 C   0  0  0  0  0  0  0  0  0  0  0  0
    6.9381   43.4636   47.9622 N   0  0  0  0  0  0  0  0  0  0  0  0
   10.7032   45.3182   50.3542 N   0  0  0  0  0  0  0  0  0  0  0  0
    4.1219   44.4297   54.3377 C   0  0  0  0  0  0  0  0  0  0  0  0
  1  4  1  0
  2 26  1  0
  2 16  2  0
  6 25  1  0
  6 21  4  0
  7 23  1  0
  8 12  2  0
  8 11  1  0
  9  7  2  0
  9 22  1  0
 11 17  1  0
 12  2  1  0
 13 20  2  0
 13 15  1  0
 14 18  4  0
 15 10  1  0
 15  1  1  0
 16 19  1  0
 17 16  1  0
 17 13  1  0
 18  3  4  0
 19  5  2  0
 19 20  1  0
 21  3  4  0
 22 15  1  0
 22 27  2  0
 23 27  1  0
 24 14  4  0
 24  6  4  0
 25  8  1  0
 27  4  1  0
M  END
$$$$

     RDKit          3D

 36 38  0  0  0  0  0  0  0  0999 V2000
    4.1799   44.5217   51.4418 C   0  0  0  0  0  0  0  0  0  0  0  0
    2.9324   45.3296   51.6777 C   0  0  0  0  0  0  0  0  0  0  0  0
    7.9820   44.1827   49.1874 C   0  0  0  0  0  0  0  0  0  0  0  0
    5.5588   42.3595   49.7012 C   0  0  0  0  0  0  0  0  0  0  0  0
    7.0238   47.3905   53.4738 C   0  0  0  0  0  0  0  0  0  0  0  0
    2.3828   44.7320   52.8710 N   0  0  0  0  0  0  0  0  0  0  0  0
    7.5229   44.4557   50.7929 S   0  0  0  0  0  0  0  0  0  0  0  0
    9.8523   45.2115   54.5242 F   0  0  0  0  0  0  0  0  0  0  0  0
    4.9456   40.4830   47.7262 C   0  0  0  0  0  0  0  0  0  0  0  0
    8.8725   46.4424   52.1859 N   0  0  0  0  0  0  0  0  0  0  0  0
    3.2340   46.8287   51.8329 C   0  0  0  0  0  0  0  0  0  0  0  0
    0.9721   45.0069   54.8506 O   0  0  0  0  0  0  0  0  0  0  0  0
    0.4873   45.7429   55.9643 C   0  0  0  0  0  0  0  0  0  0  0  0
    4.4875   41.4805   49.8827 C   0  0  0  0  0  0  0  0  0  0  0  0
    3.0512   39.5926   49.0940 C   0  0  0  0  0  0  0  0  0  0  0  0
    4.0162   43.2783   52.0880 O   0  0  0  0  0  0  0  0  0  0  0  0
    2.4146   46.7182   54.1436 N   0  0  0  0  0  0  0  0  0  0  0  0
    9.6386   47.4456   54.7384 F   0  0  0  0  0  0  0  0  0  0  0  0
    5.9188   47.1928   52.4881 C   0  0  0  0  0  0  0  0  0  0  0  0
    2.0500   42.3360   53.0789 C   0  0  0  0  0  0  0  0  0  0  0  0
    3.5223   38.4295   49.7033 O   0  0  0  0  0  0  0  0  0  0  0  0
    7.4339   43.1964   48.3012 N   0  0  0  0  0  0  0  0  0  0  0  0
    8.0566   46.2704   53.3812 C   0  0  0  0  0  0  0  0  0  0  0  0
    3.0555   43.4717   53.1047 C   0  0  0  0  0  0  0  0  0  0  0  0
    1.9286   45.5248   53.9744 C   0  0  0  0  0  0  0  0  0  0  0  0
    8.1717   46.0617   55.7514 F   0  0  0  0  0  0  0  0  0  0  0  0
    6.3332   42.3060   48.5328 C   0  0  0  0  0  0  0  0  0  0  0  0
    8.6503   45.6895   50.9921 C   0  0  0  0  0  0  0  0  0  0  0  0
    6.0169   41.3634   47.5477 C   0  0  0  0  0  0  0  0  0  0  0  0
    8.9855   45.0054   48.8057 N   0  0  0  0  0  0  0  0  0  0  0  0
    4.1761   40.5450   48.8918 C   0  0  0  0  0  0  0  0  0  0  0  0
    5.1390   46.2626   52.6142 O   0  0  0  0  0  0  0  0  0  0  0  0
    8.9467   46.2521   54.6216 C   0  0  0  0  0  0  0  0  0  0  0  0
    3.4907   47.2132   53.2890 C   0  0  0  0  0  0  0  0  0  0  0  0
   10.3969   46.7997   49.6440 N   0  0  0  0  0  0  0  0  0  0  0  0
    9.3558   45.8433   49.8092 C   0  0  0  0  0  0  0  0  0  0  0  0
  1 16  1  0
  2  1  1  0
  2 11  1  0
  2  6  1  0
  3 30  4  0
  3  7  4  0
  4 14  4  0
  5 19  1  0
  6 24  1  0
  6 25  1  0
  7 28  4  0
  9 29  4  0
  9 31  4  0
 10 23  1  0
 11 34  1  0
 12 13  1  0
 16 24  1  0
 18 33  1  0
 19 32  2  0
 21 15  1  0
 22 27  1  0
 22  3  1  0
 23  5  1  0
 23 33  1  0
 24 20  1  0
 25 17  2  0
 25 12  1  0
 27  4  4  0
 28 10  1  0
 29 27  4  0
 30 36  4  0
 31 15  1  0
 31 14  4  0
 33  8  1  0
 33 26  1  0
 34 17  1  0
 36 35  1  0
 36 28  4  0
M  END
$$$$

     RDKit          3D

 28 31  0  0  0  0  0  0  0  0999 V2000
    4.5743   47.2198   54.7180 C   0  0  0  0  0  0  0  0  0  0  0  0
    6.5993   47.0271   53.6014 C   0  0  0  0  0  0  0  0  0  0  0  0
    7.7535   44.4018   48.5584 N   0  0  0  0  0  0  0  0  0  0  0  0
    5.2851   47.6936   53.4745 C   0  0  0  0  0  0  0  0  0  0  0  0
    5.9220   41.1479   47.9044 C   0  0  0  0  0  0  0  0  0  0  0  0
    6.8315   46.7266   54.8782 C   0  0  0  0  0  0  0  0  0  0  0  0
    2.9333   47.6539   52.5232 C   0  0  0  0  0  0  0  0  0  0  0  0
    5.6263   40.4195   46.7465 C   0  0  0  0  0  0  0  0  0  0  0  0
    7.1820   42.8647   50.4720 S   0  0  0  0  0  0  0  0  0  0  0  0
    2.2236   46.4643   52.6888 O   0  0  0  0  0  0  0  0  0  0  0  0
    3.4103   48.1472   55.0381 C   0  0  0  0  0  0  0  0  0  0  0  0
    6.6625   42.3698   47.7758 N   0  0  0  0  0  0  0  0  0  0  0  0
    5.4629   40.6776   49.1438 C   0  0  0  0  0  0  0  0  0  0  0  0
    8.3012   44.7108   52.2124 N   0  0  0  0  0  0  0  0  0  0  0  0
    8.0828   46.2753   55.3860 N   0  0  0  0  0  0  0  0  0  0  0  0
    4.4435   38.7671   48.0629 C   0  0  0  0  0  0  0  0  0  0  0  0
    7.9513   44.3097   50.8751 C   0  0  0  0  0  0  0  0  0  0  0  0
    5.6681   47.0491   55.7563 C   0  0  0  0  0  0  0  0  0  0  0  0
    4.7285   39.4906   49.2237 C   0  0  0  0  0  0  0  0  0  0  0  0
    7.1688   43.2126   48.8204 C   0  0  0  0  0  0  0  0  0  0  0  0
    4.8917   39.2322   46.8237 C   0  0  0  0  0  0  0  0  0  0  0  0
    8.8523   46.2730   49.6386 N   0  0  0  0  0  0  0  0  0  0  0  0
    4.4281   47.3333   52.2658 C   0  0  0  0  0  0  0  0  0  0  0  0
    8.1403   43.7782   53.3161 C   0  0  0  0  0  0  0  0  0  0  0  0
    7.5480   46.9505   52.5307 N   0  0  0  0  0  0  0  0  0  0  0  0
    8.7107   46.0733   52.5261 C   0  0  0  0  0  0  0  0  0  0  0  0
    8.1844   45.0169   49.6917 C   0  0  0  0  0  0  0  0  0  0  0  0
    2.6855   48.5845   53.7402 C   0  0  0  0  0  0  0  0  0  0  0  0
  1 11  1  0
  1 18  1  0
  2  6  2  0
  3 27  4  0
  4 23  1  0
  4  2  1  0
  4  1  1  0
  5 13  4  0
  6 18  1  0
  6 15  1  0
  7 10  1  0
  7 28  1  0
  8 21  4  0
  8  5  4  0
  9 17  4  0
 12  5  1  0
 12 20  1  0
 13 19  4  0
 14 24  1  0
 14 26  1  0
 16 19  4  0
 17 14  1  0
 20  3  4  0
 20  9  4  0
 21 16  4  0
 23  7  1  0
 25  2  1  0
 25 26  1  0
 27 22  1  0
 27 17  4  0
 28 11  1  0
M  END
$$$$

     RDKit          3D

 23 25  0  0  0  0  0  0  0  0999 V2000
    8.1475   45.6480   53.8660 C   0  0  0  0  0  0  0  0  0  0  0  0
    9.0579   45.9093   50.8629 N   0  0  0  0  0  0  0  0  0  0  0  0
    3.8749   41.1857   47.7516 C   0  0  0  0  0  0  0  0  0  0  0  0
    7.4459   46.1444   52.6856 C   0  0  0  0  0  0  0  0  0  0  0  0
    8.3516   46.7634   54.8324 C   0  0  0  0  0  0  0  0  0  0  0  0
    6.7063   45.3835   53.7298 N   0  0  0  0  0  0  0  0  0  0  0  0
    6.8739   43.3331   48.2792 N   0  0  0  0  0  0  0  0  0  0  0  0
   10.7014   46.0955   49.1905 N   0  0  0  0  0  0  0  0  0  0  0  0
    9.6786   47.1936   55.1636 S   0  0  0  0  0  0  0  0  0  0  0  0
    5.0520   41.9032   47.5179 C   0  0  0  0  0  0  0  0  0  0  0  0
    7.4842   44.3581   49.0740 C   0  0  0  0  0  0  0  0  0  0  0  0
    5.0631   42.6361   49.8220 C   0  0  0  0  0  0  0  0  0  0  0  0
    7.8532   45.3345   51.4533 C   0  0  0  0  0  0  0  0  0  0  0  0
    8.7402   44.6297   48.8797 N   0  0  0  0  0  0  0  0  0  0  0  0
    2.0386   40.4355   49.2697 C   0  0  0  0  0  0  0  0  0  0  0  0
    5.3484   43.5444   53.9876 C   0  0  0  0  0  0  0  0  0  0  0  0
    4.1712   43.8450   53.0798 C   0  0  0  0  0  0  0  0  0  0  0  0
    5.6461   42.6437   48.5460 C   0  0  0  0  0  0  0  0  0  0  0  0
    6.5143   45.3573   50.2262 S   0  0  0  0  0  0  0  0  0  0  0  0
    6.5784   44.0271   53.3819 N   0  0  0  0  0  0  0  0  0  0  0  0
    9.4760   45.5663   49.6810 C   0  0  0  0  0  0  0  0  0  0  0  0
    3.2900   41.1971   49.0208 C   0  0  0  0  0  0  0  0  0  0  0  0
    3.8863   41.9195   50.0574 C   0  0  0  0  0  0  0  0  0  0  0  0
  1  6  1  0
  1  5  1  0
  3 22  4  0
  4  1  1  0
  4  6  1  0
  7 18  1  0
  7 11  1  0
  9  5  2  0
 10  3  4  0
 10 18  4  0
 11 14  2  0
 11 19  1  0
 13 19  1  0
 13  2  1  0
 13  4  1  0
 14 21  1  0
 17 16  1  0
 18 12  4  0
 20  6  1  0
 20 16  1  0
 21  8  1  0
 21  2  2  0
 22 15  1  0
 22 23  4  0
 23 12  4  0
M  END
$$$$

     RDKit          3D

 27 30  0  0  0  0  0  0  0  0999 V2000
    6.4781   41.4506   51.0310 N   0  0  0  0  0  0  0  0  0  0  0  0
    3.9554   48.0301   53.3523 C   0  0  0  0  0  0  0  0  0  0  0  0
    6.8648   43.6607   52.7134 C   0  0  0  0  0  0  0  0  0  0  0  0
    4.9877   44.0313   47.2842 C   0  0  0  0  0  0  0  0  0  0  0  0
    9.9095   41.9354   54.0795 S   0  0  0  0  0  0  0  0  0  0  0  0
    7.6334   46.1086   52.5095 N   0  0  0  0  0  0  0  0  0  0  0  0
    3.1119   45.5196   48.7301 C   0  0  0  0  0  0  0  0  0  0  0  0
    4.4734   47.0841   54.2427 C   0  0  0  0  0  0  0  0  0  0  0  0
    8.8742   42.8646   53.2208 C   0  0  0  0  0  0  0  0  0  0  0  0
    5.5830   42.7343   49.2632 N   0  0  0  0  0  0  0  0  0  0  0  0
    4.7976   43.7671   48.6467 C   0  0  0  0  0  0  0  0  0  0  0  0
    4.2570   45.0421   46.6505 C   0  0  0  0  0  0  0  0  0  0  0  0
    5.8771   47.7487   51.8979 C   0  0  0  0  0  0  0  0  0  0  0  0
    3.8380   44.5046   49.3589 C   0  0  0  0  0  0  0  0  0  0  0  0
    7.8504   40.1382   52.4866 N   0  0  0  0  0  0  0  0  0  0  0  0
    6.9031   41.2381   52.4209 C   0  0  0  0  0  0  0  0  0  0  0  0
    6.6028   48.1557   50.6548 C   0  0  0  0  0  0  0  0  0  0  0  0
    5.6929   46.4569   53.9623 C   0  0  0  0  0  0  0  0  0  0  0  0
    5.7680   42.4843   50.6660 C   0  0  0  0  0  0  0  0  0  0  0  0
    6.3943   46.7710   52.7835 C   0  0  0  0  0  0  0  0  0  0  0  0
    3.3279   45.7924   47.3748 C   0  0  0  0  0  0  0  0  0  0  0  0
    5.2453   43.6899   51.9218 S   0  0  0  0  0  0  0  0  0  0  0  0
    4.6498   48.3598   52.1866 C   0  0  0  0  0  0  0  0  0  0  0  0
    9.0381   44.2773   53.1133 N   0  0  0  0  0  0  0  0  0  0  0  0
    6.6445   46.8081   49.4818 Cl  0  0  0  0  0  0  0  0  0  0  0  0
    7.4782   42.5189   52.9661 C   0  0  0  0  0  0  0  0  0  0  0  0
    7.8617   44.7356   52.8320 C   0  0  0  0  0  0  0  0  0  0  0  0
  1 16  1  0
  2  8  4  0
  3 26  2  0
  3 27  1  0
  4 12  4  0
  4 11  4  0
  6 20  1  0
  9  5  2  0
  9 24  1  0
 10 11  1  0
 10 19  1  0
 11 14  4  0
 12 21  4  0
 13 20  4  0
 13 23  4  0
 14  7  4  0
 16 15  1  0
 16 26  1  0
 17 13  1  0
 18  8  4  0
 19  1  2  0
 19 22  1  0
 20 18  4  0
 21  7  4  0
 22  3  1  0
 23  2  4  0
 25 17  1  0
 26  9  1  0
 27  6  1  0
 27 24  2  0
M  END
$$$$

     RDKit          3D

 36 40  0  0  0  0  0  0  0  0999 V2000
    3.9548   49.5739   50.6113 O   0  0  0  0  0  0  0  0  0  0  0  0
    7.6723   44.8758   50.8151 C   0  0  0  0  0  0  0  0  0  0  0  0
    1.5806   46.3844   49.3523 C   0  0  0  0  0  0  0  0  0  0  0  0
    4.9227   48.3710   52.4407 C   0  0  0  0  0  0  0  0  0  0  0  0
    2.8255   44.9125   50.5418 C   0  0  0  0  0  0  0  0  0  0  0  0
    8.5845   48.7845   54.4663 C   0  0  0  0  0  0  0  0  0  0  0  0
    9.4420   48.0393   53.3892 C   0  0  0  0  0  0  0  0  0  0  0  0
    3.8995   45.9680   50.8233 C   0  0  0  0  0  0  0  0  0  0  0  0
    6.3507   41.4271   50.1949 N   0  0  0  0  0  0  0  0  0  0  0  0
    8.7277   45.7004   52.8966 N   0  0  0  0  0  0  0  0  0  0  0  0
    5.3303   38.5936   52.4512 C   0  0  0  0  0  0  0  0  0  0  0  0
    8.3941   43.3244   52.7654 C   0  0  0  0  0  0  0  0  0  0  0  0
    8.5878   45.4959   49.8740 N   0  0  0  0  0  0  0  0  0  0  0  0
    2.5975   47.5095   49.5784 C   0  0  0  0  0  0  0  0  0  0  0  0
    6.6985   42.6763   52.7246 S   0  0  0  0  0  0  0  0  0  0  0  0
    8.3458   44.6963   52.1713 C   0  0  0  0  0  0  0  0  0  0  0  0
    4.2081   36.2376   48.3654 N   0  0  0  0  0  0  0  0  0  0  0  0
    3.2896   47.3046   50.8585 N   0  0  0  0  0  0  0  0  0  0  0  0
    4.9247   37.6523   51.5011 C   0  0  0  0  0  0  0  0  0  0  0  0
    4.8655   49.9633   49.6275 C   0  0  0  0  0  0  0  0  0  0  0  0
    3.8137   48.4017   53.4890 C   0  0  0  0  0  0  0  0  0  0  0  0
    8.6611   47.0767   52.4469 C   0  0  0  0  0  0  0  0  0  0  0  0
    5.8051   39.8427   52.0389 C   0  0  0  0  0  0  0  0  0  0  0  0
    7.1886   43.6167   50.2457 N   0  0  0  0  0  0  0  0  0  0  0  0
    5.8853   40.1583   50.6728 C   0  0  0  0  0  0  0  0  0  0  0  0
    2.2501   45.1480   49.2785 O   0  0  0  0  0  0  0  0  0  0  0  0
    4.9995   37.9598   50.1389 C   0  0  0  0  0  0  0  0  0  0  0  0
    7.2391   47.6001   52.3544 C   0  0  0  0  0  0  0  0  0  0  0  0
    7.1400   48.8269   54.1479 N   0  0  0  0  0  0  0  0  0  0  0  0
    4.5623   37.0056   49.1570 C   0  0  0  0  0  0  0  0  0  0  0  0
    5.4733   39.2088   49.7314 C   0  0  0  0  0  0  0  0  0  0  0  0
    6.7328   42.6045   50.9233 C   0  0  0  0  0  0  0  0  0  0  0  0
    3.2414   49.8009   53.6079 C   0  0  0  0  0  0  0  0  0  0  0  0
    6.8416   47.5122   53.7796 N   0  0  0  0  0  0  0  0  0  0  0  0
    4.3776   48.2954   50.9986 C   0  0  0  0  0  0  0  0  0  0  0  0
    5.8782   47.2193   52.7134 C   0  0  0  0  0  0  0  0  0  0  0  0
  1 20  1  0
  2 13  1  0
  2 16  1  0
  3 14  1  0
  4 21  1  0
  5  8  1  0
  7  6  1  0
  8 18  1  0
  9 25  1  0
  9 32  1  0
 12 16  1  0
 14 18  1  0
 15 12  1  0
 16 10  2  3
 17 30  3  0
 19 11  4  0
 21 33  1  0
 22 10  1  0
 22  7  1  0
 23 11  4  0
 24  2  1  0
 25 23  4  0
 26  3  1  0
 26  5  1  0
 27 31  4  0
 27 19  4  0
 28 36  1  0
 28 22  1  0
 28 34  1  0
 29  6  1  0
 30 27  1  0
 31 25  4  0
 32 24  2  0
 32 15  1  0
 34 29  1  0
 35 18  1  0
 35  1  1  0
 35  4  1  0
 36  4  1  0
 36 34  1  0
M  END
$$$$

     RDKit          3D

 18 19  0  0  0  0  0  0  0  0999 V2000
    6.6762   42.8583   54.2825 C   0  0  0  0  0  0  0  0  0  0  0  0
    3.7926   43.5616   47.3026 C   0  0  0  0  0  0  0  0  0  0  0  0
    4.7732   42.0747   45.6627 C   0  0  0  0  0  0  0  0  0  0  0  0
    3.6646   42.7650   46.1612 C   0  0  0  0  0  0  0  0  0  0  0  0
    8.4091   46.7071   53.4574 C   0  0  0  0  0  0  0  0  0  0  0  0
    5.0296   43.6679   47.9452 C   0  0  0  0  0  0  0  0  0  0  0  0
    7.8515   45.5036   53.9709 N   0  0  0  0  0  0  0  0  0  0  0  0
    9.1134   44.6666   50.9606 C   0  0  0  0  0  0  0  0  0  0  0  0
    7.6347   44.7619   52.9385 C   0  0  0  0  0  0  0  0  0  0  0  0
    8.0267   45.4327   51.6708 C   0  0  0  0  0  0  0  0  0  0  0  0
    7.6482   43.8563   49.2538 C   0  0  0  0  0  0  0  0  0  0  0  0
    8.8244   43.8958   49.7902 N   0  0  0  0  0  0  0  0  0  0  0  0
    7.0516   43.4603   53.0145 N   0  0  0  0  0  0  0  0  0  0  0  0
    7.4217   43.0682   48.0870 N   0  0  0  0  0  0  0  0  0  0  0  0
   10.3037   44.6158   51.4641 N   0  0  0  0  0  0  0  0  0  0  0  0
    8.5271   46.7066   52.1687 N   0  0  0  0  0  0  0  0  0  0  0  0
    6.0106   42.1809   46.3053 C   0  0  0  0  0  0  0  0  0  0  0  0
    6.1459   42.9766   47.4480 C   0  0  0  0  0  0  0  0  0  0  0  0
  2  6  4  0
  3  4  4  0
  4  2  4  0
  7  5  1  0
  8 15  2  0
  9  7  2  0
 10  8  1  0
 10  9  1  0
 10 16  1  0
 11 12  2  3
 12  8  1  0
 13  1  1  0
 13  9  1  0
 14 18  1  0
 14 11  1  0
 16  5  2  0
 17  3  4  0
 17 18  4  0
 18  6  4  0
M  END
$$$$

     RDKit          3D

 28 31  0  0  0  0  0  0  0  0999 V2000
    8.2681   45.2796   50.6694 N   0  0  0  0  0  0  0  0  0  0  0  0
    8.4165   47.4956   53.1020 C   0  0  0  0  0  0  0  0  0  0  0  0
    6.3830   41.4049   49.1943 C   0  0  0  0  0  0  0  0  0  0  0  0
    9.1544   46.5399   52.5629 C   0  0  0  0  0  0  0  0  0  0  0  0
    5.3399   42.0987   49.8276 C   0  0  0  0  0  0  0  0  0  0  0  0
    0.6350   44.2810   52.8688 Cl  0  0  0  0  0  0  0  0  0  0  0  0
    1.8160   46.6296   53.6120 C   0  0  0  0  0  0  0  0  0  0  0  0
    6.9269   46.0059   52.5932 C   0  0  0  0  0  0  0  0  0  0  0  0
    7.7271   41.9055   49.1709 N   0  0  0  0  0  0  0  0  0  0  0  0
    7.0392   47.1687   53.1412 N   0  0  0  0  0  0  0  0  0  0  0  0
    8.9743   48.7457   53.6846 C   0  0  0  0  0  0  0  0  0  0  0  0
    8.2378   45.4307   52.1318 C   0  0  0  0  0  0  0  0  0  0  0  0
    4.3861   45.7720   52.8852 C   0  0  0  0  0  0  0  0  0  0  0  0
    4.8155   39.6532   48.5853 C   0  0  0  0  0  0  0  0  0  0  0  0
    9.4295   43.4725   49.6797 N   0  0  0  0  0  0  0  0  0  0  0  0
    9.1391   48.5866   55.1183 N   0  0  0  0  0  0  0  0  0  0  0  0
    3.7819   40.3514   49.2154 C   0  0  0  0  0  0  0  0  0  0  0  0
    4.1905   47.0560   53.4170 C   0  0  0  0  0  0  0  0  0  0  0  0
    7.3447   44.2047   50.2917 C   0  0  0  0  0  0  0  0  0  0  0  0
    5.6821   45.2995   52.4957 N   0  0  0  0  0  0  0  0  0  0  0  0
    4.0442   41.5748   49.8374 C   0  0  0  0  0  0  0  0  0  0  0  0
    3.2851   44.9248   52.7193 C   0  0  0  0  0  0  0  0  0  0  0  0
    2.0038   45.3505   53.0815 C   0  0  0  0  0  0  0  0  0  0  0  0
   10.1923   45.6877   49.3088 N   0  0  0  0  0  0  0  0  0  0  0  0
    9.5998   44.7828   50.2783 C   0  0  0  0  0  0  0  0  0  0  0  0
    6.1112   40.1789   48.5766 C   0  0  0  0  0  0  0  0  0  0  0  0
    8.1912   43.1549   49.6983 C   0  0  0  0  0  0  0  0  0  0  0  0
    2.9098   47.4829   53.7797 C   0  0  0  0  0  0  0  0  0  0  0  0
  1 19  1  0
  1 12  1  0
  2 10  1  0
  2 11  1  0
  3  5  4  0
  4  2  2  0
  5 21  4  0
  7 23  4  0
  8 20  1  0
  8 10  2  0
  9  3  1  0
  9 27  1  0
 11 16  1  0
 12  4  1  0
 12  8  1  0
 13 20  1  0
 13 22  4  0
 14 26  4  0
 14 17  4  0
 15 25  1  0
 17 21  4  0
 18 13  4  0
 23 22  4  0
 23  6  1  0
 25 24  1  0
 25  1  1  0
 26  3  4  0
 27 15  2  0
 27 19  1  0
 28 18  4  0
 28  7  4  0
M  END
$$$$

     RDKit          3D

 27 29  0  0  0  0  0  0  0  0999 V2000
    9.6870   47.6867   53.2812 C   0  0  0  0  0  0  0  0  0  0  0  0
    4.3978   44.6029   52.6995 C   0  0  0  0  0  0  0  0  0  0  0  0
    3.5118   43.5952   55.1145 Cl  0  0  0  0  0  0  0  0  0  0  0  0
    6.9583   45.3223   54.1806 N   0  0  0  0  0  0  0  0  0  0  0  0
    9.7069   47.4204   51.8432 N   0  0  0  0  0  0  0  0  0  0  0  0
    2.6938   44.3320   49.3497 C   0  0  0  0  0  0  0  0  0  0  0  0
    6.4577   45.9402   50.0876 N   0  0  0  0  0  0  0  0  0  0  0  0
    6.4325   44.0010   53.8631 C   0  0  0  0  0  0  0  0  0  0  0  0
    2.2321   43.0976   48.8859 C   0  0  0  0  0  0  0  0  0  0  0  0
    8.0413   45.9325   53.4737 C   0  0  0  0  0  0  0  0  0  0  0  0
    4.8077   41.7242   52.7408 C   0  0  0  0  0  0  0  0  0  0  0  0
    3.3943   42.2773   52.7159 C   0  0  0  0  0  0  0  0  0  0  0  0
    3.3590   43.6666   53.3379 C   0  0  0  0  0  0  0  0  0  0  0  0
    8.6470   45.2721   52.2611 C   0  0  0  0  0  0  0  0  0  0  0  0
    4.5093   42.4271   48.4096 C   0  0  0  0  0  0  0  0  0  0  0  0
    8.5031   45.1331   49.2200 N   0  0  0  0  0  0  0  0  0  0  0  0
    8.5208   47.0608   53.9042 N   0  0  0  0  0  0  0  0  0  0  0  0
    6.3956   43.9032   48.8668 N   0  0  0  0  0  0  0  0  0  0  0  0
   10.3629   46.5623   49.2496 N   0  0  0  0  0  0  0  0  0  0  0  0
    4.0632   44.6117   49.3442 C   0  0  0  0  0  0  0  0  0  0  0  0
    4.9816   43.6582   48.8783 C   0  0  0  0  0  0  0  0  0  0  0  0
    5.7340   42.6774   51.9904 C   0  0  0  0  0  0  0  0  0  0  0  0
    3.1398   42.1456   48.4142 C   0  0  0  0  0  0  0  0  0  0  0  0
    9.3692   46.0509   49.8985 C   0  0  0  0  0  0  0  0  0  0  0  0
    9.2418   46.3117   51.3456 C   0  0  0  0  0  0  0  0  0  0  0  0
    5.7479   44.0243   52.5748 N   0  0  0  0  0  0  0  0  0  0  0  0
    7.0945   45.0145   49.4451 C   0  0  0  0  0  0  0  0  0  0  0  0
  1 17  1  0
  2 26  1  0
  2 13  1  0
  4  8  1  0
  5  1  1  0
  6 20  4  0
  9  6  4  0
 10 17  2  0
 10  4  1  0
 11 12  1  0
 12 13  1  0
 13  3  1  0
 14 10  1  0
 15 21  4  0
 16 24  1  0
 18 27  1  0
 21 18  1  0
 21 20  4  0
 22 11  1  0
 22 26  1  0
 23 15  4  0
 23  9  4  0
 24 19  2  0
 24 25  1  0
 25 14  1  0
 25  5  2  0
 26  8  1  0
 27 16  1  0
 27  7  2  0
M  END
$$$$

     RDKit          3D

 27 29  0  0  0  0  0  0  0  0999 V2000
    8.1342   47.1502   51.4934 N   0  0  0  0  0  0  0  0  0  0  0  0
    1.9527   45.5550   52.9294 C   0  0  0  0  0  0  0  0  0  0  0  0
    9.0636   48.2696   51.5412 C   0  0  0  0  0  0  0  0  0  0  0  0
    4.4274   44.3756   53.0864 F   0  0  0  0  0  0  0  0  0  0  0  0
    8.3884   42.2728   49.4935 N   0  0  0  0  0  0  0  0  0  0  0  0
    8.5832   43.6136   49.9655 C   0  0  0  0  0  0  0  0  0  0  0  0
    3.1902   47.7522   52.7595 C   0  0  0  0  0  0  0  0  0  0  0  0
    7.4453   44.5712   50.7606 S   0  0  0  0  0  0  0  0  0  0  0  0
    5.0959   40.9166   50.6978 C   0  0  0  0  0  0  0  0  0  0  0  0
    6.8160   47.3741   51.9195 N   0  0  0  0  0  0  0  0  0  0  0  0
    1.9905   45.5476   54.4515 C   0  0  0  0  0  0  0  0  0  0  0  0
    6.6757   46.7831   53.2468 C   0  0  0  0  0  0  0  0  0  0  0  0
   10.0062   48.0563   52.5474 O   0  0  0  0  0  0  0  0  0  0  0  0
    5.2068   46.5786   53.6149 C   0  0  0  0  0  0  0  0  0  0  0  0
    3.1398   46.2982   52.3035 C   0  0  0  0  0  0  0  0  0  0  0  0
    6.1517   39.3029   49.2367 C   0  0  0  0  0  0  0  0  0  0  0  0
    6.1779   41.7832   50.5189 C   0  0  0  0  0  0  0  0  0  0  0  0
    9.6975   45.5391   50.2821 C   0  0  0  0  0  0  0  0  0  0  0  0
    4.6115   48.7870   54.4174 N   0  0  0  0  0  0  0  0  0  0  0  0
    7.2327   40.1719   49.0592 C   0  0  0  0  0  0  0  0  0  0  0  0
   10.8130   46.4162   50.1703 N   0  0  0  0  0  0  0  0  0  0  0  0
    7.2529   41.4190   49.6943 C   0  0  0  0  0  0  0  0  0  0  0  0
    4.5114   45.6734   52.6104 C   0  0  0  0  0  0  0  0  0  0  0  0
    9.7432   44.2787   49.7735 N   0  0  0  0  0  0  0  0  0  0  0  0
    4.4317   47.8462   53.5663 C   0  0  0  0  0  0  0  0  0  0  0  0
    5.0826   39.6758   50.0556 C   0  0  0  0  0  0  0  0  0  0  0  0
    8.4850   45.8908   50.8854 C   0  0  0  0  0  0  0  0  0  0  0  0
  1 10  1  0
  1  3  1  0
  2 11  1  0
  3 13  1  0
  5 22  1  0
  5  6  1  0
  6 24  4  0
  6  8  4  0
  7 25  1  0
  7 15  1  0
  8 27  4  0
 10 12  1  0
 14 25  1  0
 14 12  1  0
 14 23  1  0
 15 23  1  0
 15  2  1  0
 16 20  4  0
 16 26  4  0
 17  9  4  0
 18 21  1  0
 18 27  4  0
 20 22  4  0
 22 17  4  0
 23  4  1  0
 24 18  4  0
 25 19  2  0
 26  9  4  0
 27  1  1  0
M  END
$$$$

     RDKit          3D

 18 20  0  0  0  0  0  0  0  0999 V2000
    7.8535   43.7925   49.6261 C   0  0  0  0  0  0  0  0  0  0  0  0
    8.9447   45.8838   51.4329 C   0  0  0  0  0  0  0  0  0  0  0  0
    7.4530   42.7948   48.6755 N   0  0  0  0  0  0  0  0  0  0  0  0
   10.9871   45.2690   50.4784 N   0  0  0  0  0  0  0  0  0  0  0  0
    6.7511   44.6302   50.5972 S   0  0  0  0  0  0  0  0  0  0  0  0
    8.8921   47.5933   53.0852 C   0  0  0  0  0  0  0  0  0  0  0  0
    7.5433   47.4747   53.1977 N   0  0  0  0  0  0  0  0  0  0  0  0
    5.2746   42.1005   49.6449 C   0  0  0  0  0  0  0  0  0  0  0  0
    9.7077   45.0887   50.5336 C   0  0  0  0  0  0  0  0  0  0  0  0
    4.0784   41.3854   49.5367 C   0  0  0  0  0  0  0  0  0  0  0  0
    5.9210   41.3598   47.4367 C   0  0  0  0  0  0  0  0  0  0  0  0
    4.7252   40.6436   47.3264 C   0  0  0  0  0  0  0  0  0  0  0  0
    9.1627   44.1377   49.7126 N   0  0  0  0  0  0  0  0  0  0  0  0
    6.8600   46.5740   52.4465 C   0  0  0  0  0  0  0  0  0  0  0  0
    3.8028   40.6581   48.3759 C   0  0  0  0  0  0  0  0  0  0  0  0
    9.5773   46.8063   52.2132 N   0  0  0  0  0  0  0  0  0  0  0  0
    6.1998   42.1021   48.5900 C   0  0  0  0  0  0  0  0  0  0  0  0
    7.5488   45.7615   51.5507 C   0  0  0  0  0  0  0  0  0  0  0  0
  1 13  4  0
  1  5  4  0
  2 16  4  0
  3 17  1  0
  3  1  1  0
  5 18  4  0
  7  6  4  0
  9  4  2  0
  9  2  4  0
 10  8  4  0
 11 12  4  0
 11 17  4  0
 12 15  4  0
 13  9  4  0
 14  7  4  0
 15 10  4  0
 16  6  4  0
 17  8  4  0
 18  2  4  0
 18 14  4  0
M  END
$$$$

     RDKit          3D

 28 31  0  0  0  0  0  0  0  0999 V2000
    7.3892   46.5613   52.8937 C   0  0  0  0  0  0  0  0  0  0  0  0
    7.5165   42.6575   49.0201 N   0  0  0  0  0  0  0  0  0  0  0  0
    1.3326   47.0372   52.4421 C   0  0  0  0  0  0  0  0  0  0  0  0
    4.2327   47.9881   52.0251 C   0  0  0  0  0  0  0  0  0  0  0  0
    6.7603   41.6610   49.7165 C   0  0  0  0  0  0  0  0  0  0  0  0
    5.6445   47.5210   52.0938 C   0  0  0  0  0  0  0  0  0  0  0  0
    7.9552   45.5509   55.1306 C   0  0  0  0  0  0  0  0  0  0  0  0
    6.7503   41.5992   51.1188 C   0  0  0  0  0  0  0  0  0  0  0  0
    6.4357   47.5476   51.0714 N   0  0  0  0  0  0  0  0  0  0  0  0
    5.3593   39.6819   49.6363 C   0  0  0  0  0  0  0  0  0  0  0  0
    2.1101   47.4228   51.2039 C   0  0  0  0  0  0  0  0  0  0  0  0
    7.9830   43.8895   49.5845 C   0  0  0  0  0  0  0  0  0  0  0  0
    9.2146   45.5678   49.9586 C   0  0  0  0  0  0  0  0  0  0  0  0
    3.8837   44.4523   53.6395 C   0  0  0  0  0  0  0  0  0  0  0  0
    3.3576   46.8664   51.7131 N   0  0  0  0  0  0  0  0  0  0  0  0
    7.6958   46.9501   51.4888 C   0  0  0  0  0  0  0  0  0  0  0  0
    6.0354   40.5930   51.7748 C   0  0  0  0  0  0  0  0  0  0  0  0
    6.1968   46.9032   53.2481 N   0  0  0  0  0  0  0  0  0  0  0  0
    5.3375   39.6357   51.0332 C   0  0  0  0  0  0  0  0  0  0  0  0
    6.0742   40.6890   48.9806 C   0  0  0  0  0  0  0  0  0  0  0  0
   10.3109   46.4755   49.9344 N   0  0  0  0  0  0  0  0  0  0  0  0
    5.8578   44.5138   50.7826 C   0  0  0  0  0  0  0  0  0  0  0  0
    9.1925   44.4068   49.2763 N   0  0  0  0  0  0  0  0  0  0  0  0
    8.0352   45.7556   50.6405 C   0  0  0  0  0  0  0  0  0  0  0  0
    8.3110   45.9099   53.7684 N   0  0  0  0  0  0  0  0  0  0  0  0
    2.5827   44.9874   53.0752 C   0  0  0  0  0  0  0  0  0  0  0  0
    2.6550   46.5011   52.9397 C   0  0  0  0  0  0  0  0  0  0  0  0
    7.2512   44.6866   50.3984 N   0  0  0  0  0  0  0  0  0  0  0  0
  1 18  2  0
  2  5  1  0
  2 12  1  0
  3 27  1  0
  5  8  4  0
  6 18  1  0
  6  4  1  0
  8 17  4  0
  9  6  2  0
 10 19  4  0
 11  3  1  0
 11 15  1  0
 12 23  4  0
 12 28  4  0
 13 21  1  0
 13 24  4  0
 15 27  1  0
 15  4  1  0
 16 24  1  0
 16  9  1  0
 16  1  1  0
 19 17  4  0
 20 10  4  0
 20  5  4  0
 23 13  4  0
 25  1  1  0
 25  7  1  0
 26 14  1  0
 27 26  1  0
 28 22  1  0
 28 24  4  0
M  END
$$$$

     RDKit          3D

 23 24  0  0  0  0  0  0  0  0999 V2000
    5.4750   44.5943   53.0933 C   0  0  0  0  0  0  0  0  0  0  0  0
    3.4841   41.3412   49.8859 C   0  0  0  0  0  0  0  0  0  0  0  0
    9.5275   47.9514   51.6851 O   0  0  0  0  0  0  0  0  0  0  0  0
    6.7547   44.8094   49.3860 N   0  0  0  0  0  0  0  0  0  0  0  0
    4.8070   41.7026   49.6093 C   0  0  0  0  0  0  0  0  0  0  0  0
    3.1088   39.9943   49.8958 C   0  0  0  0  0  0  0  0  0  0  0  0
    5.1657   43.0864   49.6084 N   0  0  0  0  0  0  0  0  0  0  0  0
    7.7605   45.4616   52.8365 C   0  0  0  0  0  0  0  0  0  0  0  0
    9.0381   44.5683   48.7801 N   0  0  0  0  0  0  0  0  0  0  0  0
    5.1536   46.8317   52.0609 C   0  0  0  0  0  0  0  0  0  0  0  0
    7.5964   46.4926   52.0052 C   0  0  0  0  0  0  0  0  0  0  0  0
    7.3487   43.6294   54.7341 Cl  0  0  0  0  0  0  0  0  0  0  0  0
    8.3556   47.0871   49.3735 S   0  0  0  0  0  0  0  0  0  0  0  0
    6.7207   45.0056   53.8012 C   0  0  0  0  0  0  0  0  0  0  0  0
    6.3782   47.2580   51.9274 N   0  0  0  0  0  0  0  0  0  0  0  0
    8.0614   45.3379   49.1383 C   0  0  0  0  0  0  0  0  0  0  0  0
    8.7803   49.1363   51.5995 C   0  0  0  0  0  0  0  0  0  0  0  0
    4.0567   39.0021   49.6291 C   0  0  0  0  0  0  0  0  0  0  0  0
    8.7677   46.8876   51.1506 C   0  0  0  0  0  0  0  0  0  0  0  0
    4.7651   45.4376   52.3477 C   0  0  0  0  0  0  0  0  0  0  0  0
    5.3802   39.3562   49.3525 C   0  0  0  0  0  0  0  0  0  0  0  0
    6.4893   43.5446   49.3412 C   0  0  0  0  0  0  0  0  0  0  0  0
    5.7557   40.7028   49.3426 C   0  0  0  0  0  0  0  0  0  0  0  0
  1 14  1  0
  4 16  1  0
  5  2  4  0
  6  2  4  0
  7  5  1  0
  7 22  1  0
  8 14  1  0
 10 20  1  0
 11  8  2  0
 13 16  1  0
 14 12  1  0
 15 10  2  0
 15 11  1  0
 16  9  2  0
 17  3  1  0
 18  6  4  0
 19 13  1  0
 19 11  1  0
 19  3  1  0
 20  1  2  0
 21 18  4  0
 22  4  2  3
 23 21  4  0
 23  5  4  0
M  END
$$$$

     RDKit          3D

 27 31  0  0  0  0  0  0  0  0999 V2000
    8.0468   46.1068   50.7434 C   0  0  0  0  0  0  0  0  0  0  0  0
    5.9357   42.0602   50.2275 C   0  0  0  0  0  0  0  0  0  0  0  0
    6.3736   46.0072   52.5635 C   0  0  0  0  0  0  0  0  0  0  0  0
    7.3986   43.1736   48.5779 N   0  0  0  0  0  0  0  0  0  0  0  0
    4.1681   40.5886   49.4748 C   0  0  0  0  0  0  0  0  0  0  0  0
    4.8747   41.1973   50.5156 C   0  0  0  0  0  0  0  0  0  0  0  0
    4.5276   40.8375   48.1471 C   0  0  0  0  0  0  0  0  0  0  0  0
    5.7929   44.9631   50.4865 N   0  0  0  0  0  0  0  0  0  0  0  0
    2.3023   45.1606   54.3763 C   0  0  0  0  0  0  0  0  0  0  0  0
    2.0055   44.6650   53.0883 C   0  0  0  0  0  0  0  0  0  0  0  0
    3.5713   45.6950   54.6663 C   0  0  0  0  0  0  0  0  0  0  0  0
    4.5177   45.7264   53.6436 C   0  0  0  0  0  0  0  0  0  0  0  0
    5.5897   41.7004   47.8596 C   0  0  0  0  0  0  0  0  0  0  0  0
    7.1256   45.1740   50.0781 N   0  0  0  0  0  0  0  0  0  0  0  0
    9.4282   45.4826   50.5006 C   0  0  0  0  0  0  0  0  0  0  0  0
    7.9215   44.1975   49.4308 C   0  0  0  0  0  0  0  0  0  0  0  0
    4.2189   45.2414   52.3838 C   0  0  0  0  0  0  0  0  0  0  0  0
    6.2874   42.3298   48.8958 C   0  0  0  0  0  0  0  0  0  0  0  0
    8.6588   46.9143   53.0771 C   0  0  0  0  0  0  0  0  0  0  0  0
   10.2973   46.4527   49.8594 N   0  0  0  0  0  0  0  0  0  0  0  0
    9.1873   44.3638   49.5933 N   0  0  0  0  0  0  0  0  0  0  0  0
    2.9738   44.6978   52.0708 C   0  0  0  0  0  0  0  0  0  0  0  0
    9.2765   45.7453   54.3228 S   0  0  0  0  0  0  0  0  0  0  0  0
    2.6067   44.0803   50.4715 Cl  0  0  0  0  0  0  0  0  0  0  0  0
    7.7329   46.2384   52.1781 N   0  0  0  0  0  0  0  0  0  0  0  0
    5.4373   45.4257   51.6381 C   0  0  0  0  0  0  0  0  0  0  0  0
    5.8715   46.1925   53.7476 N   0  0  0  0  0  0  0  0  0  0  0  0
  1 14  1  0
  1 25  1  0
  3 27  2  0
  4 18  1  0
  4 16  1  0
  5  6  4  0
  6  2  4  0
  7  5  4  0
  8 26  2  0
  9 11  4  0
 10  9  4  0
 12 27  1  0
 12 11  4  0
 13  7  4  0
 13 18  4  0
 14  8  1  0
 15 20  1  0
 15  1  1  0
 16 21  2  0
 16 14  1  0
 17 12  4  0
 18  2  4  0
 21 15  1  0
 22 17  4  0
 22 10  4  0
 23 19  1  0
 24 22  1  0
 25  3  1  0
 25 19  1  0
 26 17  1  0
 26  3  1  0
M  END
$$$$

     RDKit          3D

 36 38  0  0  0  0  0  0  0  0999 V2000
    6.7570   48.0384   54.4786 C   0  0  0  0  0  0  0  0  0  0  0  0
    9.0227   46.3780   49.6128 C   0  0  0  0  0  0  0  0  0  0  0  0
    9.4945   46.8913   52.3680 O   0  0  0  0  0  0  0  0  0  0  0  0
    6.0584   42.9052   47.8615 C   0  0  0  0  0  0  0  0  0  0  0  0
    4.7298   45.7463   54.5639 N   0  0  0  0  0  0  0  0  0  0  0  0
    2.8315   40.0123   44.0904 N   0  0  0  0  0  0  0  0  0  0  0  0
    1.6988   44.0531   56.0900 C   0  0  0  0  0  0  0  0  0  0  0  0
    7.5674   44.8100   48.7210 C   0  0  0  0  0  0  0  0  0  0  0  0
    3.5343   44.9617   54.6797 C   0  0  0  0  0  0  0  0  0  0  0  0
    6.4009   47.1816   53.3049 C   0  0  0  0  0  0  0  0  0  0  0  0
    3.4461   45.5588   56.9361 F   0  0  0  0  0  0  0  0  0  0  0  0
    7.4060   46.0530   53.1294 C   0  0  0  0  0  0  0  0  0  0  0  0
   -0.3274   43.2197   54.8798 C   0  0  0  0  0  0  0  0  0  0  0  0
    7.1334   43.8479   47.7502 N   0  0  0  0  0  0  0  0  0  0  0  0
    4.3565   41.7353   49.1451 C   0  0  0  0  0  0  0  0  0  0  0  0
    4.0165   40.9854   48.0170 C   0  0  0  0  0  0  0  0  0  0  0  0
    5.3771   42.6872   49.0682 C   0  0  0  0  0  0  0  0  0  0  0  0
    3.2108   40.9415   44.9985 O   0  0  0  0  0  0  0  0  0  0  0  0
    4.1251   46.9665   52.6594 O   0  0  0  0  0  0  0  0  0  0  0  0
    1.7842   43.6265   53.6096 C   0  0  0  0  0  0  0  0  0  0  0  0
    4.3381   40.3906   45.6088 C   0  0  0  0  0  0  0  0  0  0  0  0
    1.0384   43.7127   54.8311 N   0  0  0  0  0  0  0  0  0  0  0  0
    4.6719   42.9670   52.4464 F   0  0  0  0  0  0  0  0  0  0  0  0
    3.7990   44.0262   52.2770 C   0  0  0  0  0  0  0  0  0  0  0  0
    6.6285   45.2697   50.1722 S   0  0  0  0  0  0  0  0  0  0  0  0
    8.6821   45.4411   48.5552 N   0  0  0  0  0  0  0  0  0  0  0  0
    5.0273   46.6234   53.4694 C   0  0  0  0  0  0  0  0  0  0  0  0
    2.9260   44.8946   55.8730 C   0  0  0  0  0  0  0  0  0  0  0  0
    2.9851   44.2117   53.5175 C   0  0  0  0  0  0  0  0  0  0  0  0
    8.3796   46.3962   52.0521 C   0  0  0  0  0  0  0  0  0  0  0  0
    1.2632   42.9584   52.5474 F   0  0  0  0  0  0  0  0  0  0  0  0
    5.7155   42.1443   46.7382 C   0  0  0  0  0  0  0  0  0  0  0  0
    7.8077   48.7705   54.4566 N   0  0  0  0  0  0  0  0  0  0  0  0
    4.7004   41.1850   46.8137 C   0  0  0  0  0  0  0  0  0  0  0  0
    8.9566   47.7370   49.1044 N   0  0  0  0  0  0  0  0  0  0  0  0
    8.0411   46.2031   50.6726 N   0  0  0  0  0  0  0  0  0  0  0  0
  2 35  1  0
  2 36  1  0
  4 17  4  0
  5 27  1  0
  7 28  1  0
  8 26  2  0
  8 25  1  0
  9  5  1  0
  9 28  2  0
 10 12  1  0
 10 27  1  0
 10  1  1  0
 13 22  1  0
 14  4  1  0
 14  8  1  0
 15 17  4  0
 16 15  4  0
 18  6  1  0
 20 29  2  0
 20 22  1  0
 21 18  1  0
 21 34  1  0
 22  7  1  0
 23 24  1  0
 24 29  1  0
 25 36  1  0
 26  2  1  0
 27 19  2  0
 28 11  1  0
 29  9  1  0
 30  3  2  0
 30 12  1  0
 31 20  1  0
 32  4  4  0
 33  1  2  0
 34 32  4  0
 34 16  4  0
 36 30  1  0
M  END
$$$$

     RDKit          3D

 18 18  0  0  0  0  0  0  0  0999 V2000
    8.9091   44.6191   51.9286 C   0  0  0  0  0  0  0  0  0  0  0  0
    5.8385   47.5457   53.3056 N   0  0  0  0  0  0  0  0  0  0  0  0
    7.2973   44.3670   50.3087 N   0  0  0  0  0  0  0  0  0  0  0  0
   10.1720   46.2236   53.1561 O   0  0  0  0  0  0  0  0  0  0  0  0
    6.8367   45.6828   52.1222 C   0  0  0  0  0  0  0  0  0  0  0  0
    7.8726   45.3098   51.1733 N   0  0  0  0  0  0  0  0  0  0  0  0
    3.9067   40.6101   48.9172 C   0  0  0  0  0  0  0  0  0  0  0  0
    5.4449   42.3192   49.6722 C   0  0  0  0  0  0  0  0  0  0  0  0
    5.6941   41.3607   47.4667 C   0  0  0  0  0  0  0  0  0  0  0  0
    7.8639   44.0640   49.0294 C   0  0  0  0  0  0  0  0  0  0  0  0
    6.8697   47.1806   52.3525 C   0  0  0  0  0  0  0  0  0  0  0  0
    4.5857   40.5403   47.6978 C   0  0  0  0  0  0  0  0  0  0  0  0
   11.0855   45.5999   51.1142 N   0  0  0  0  0  0  0  0  0  0  0  0
    6.1313   42.2559   48.4497 C   0  0  0  0  0  0  0  0  0  0  0  0
    4.3366   41.4999   49.9050 C   0  0  0  0  0  0  0  0  0  0  0  0
   10.0831   45.5156   52.1199 C   0  0  0  0  0  0  0  0  0  0  0  0
    7.2745   43.0770   48.1730 N   0  0  0  0  0  0  0  0  0  0  0  0
    8.9089   44.7040   48.6198 N   0  0  0  0  0  0  0  0  0  0  0  0
  1 16  1  0
  3  6  1  0
  5 11  1  0
  6  1  1  0
  6  5  1  0
  7 15  4  0
  8 15  4  0
  9 12  4  0
  9 14  4  0
 10  3  1  0
 11  2  1  0
 12  7  4  0
 13 16  1  0
 14  8  4  0
 16  4  2  0
 17 14  1  0
 17 10  1  0
 18 10  2  0
M  END
$$$$

     RDKit          3D

 23 25  0  0  0  0  0  0  0  0999 V2000
    4.8742   40.5793   48.8935 C   0  0  0  0  0  0  0  0  0  0  0  0
    4.1610   45.9098   55.8009 C   0  0  0  0  0  0  0  0  0  0  0  0
    4.1248   46.3395   54.4092 N   0  0  0  0  0  0  0  0  0  0  0  0
    7.4387   40.3355   47.8113 C   0  0  0  0  0  0  0  0  0  0  0  0
    6.9296   45.1837   51.1572 N   0  0  0  0  0  0  0  0  0  0  0  0
    6.4959   39.3228   47.6105 C   0  0  0  0  0  0  0  0  0  0  0  0
    5.8401   45.5608   52.0496 C   0  0  0  0  0  0  0  0  0  0  0  0
    7.7252   46.5045   53.4772 N   0  0  0  0  0  0  0  0  0  0  0  0
    3.0262   47.2925   54.2148 C   0  0  0  0  0  0  0  0  0  0  0  0
    3.1462   48.5509   55.0767 C   0  0  0  0  0  0  0  0  0  0  0  0
    8.0389   46.0751   51.0208 C   0  0  0  0  0  0  0  0  0  0  0  0
    9.0600   45.7439   50.2277 C   0  0  0  0  0  0  0  0  0  0  0  0
    5.3958   46.9798   54.0883 C   0  0  0  0  0  0  0  0  0  0  0  0
    5.8183   41.5907   49.0928 C   0  0  0  0  0  0  0  0  0  0  0  0
    7.1107   41.4726   48.5586 C   0  0  0  0  0  0  0  0  0  0  0  0
    9.0000   44.5398   49.4532 N   0  0  0  0  0  0  0  0  0  0  0  0
    6.3486   45.9807   53.4482 C   0  0  0  0  0  0  0  0  0  0  0  0
    8.1028   42.4962   48.7228 N   0  0  0  0  0  0  0  0  0  0  0  0
    5.2138   39.4442   48.1530 C   0  0  0  0  0  0  0  0  0  0  0  0
   10.1997   46.5913   50.1127 N   0  0  0  0  0  0  0  0  0  0  0  0
    6.9402   43.8438   50.5720 C   0  0  0  0  0  0  0  0  0  0  0  0
    8.0370   43.6697   49.5457 C   0  0  0  0  0  0  0  0  0  0  0  0
    8.0635   47.5277   52.0663 S   0  0  0  0  0  0  0  0  0  0  0  0
  3 13  1  0
  3  2  1  0
  4  6  4  0
  4 15  4  0
  5 11  1  0
  5  7  1  0
  6 19  4  0
  7 17  1  0
  9 10  1  0
  9  3  1  0
 11 23  1  0
 12 20  1  0
 12 11  2  0
 14  1  4  0
 15 14  4  0
 16 12  1  0
 17  8  1  0
 17 13  1  0
 18 15  1  0
 18 22  1  0
 19  1  4  0
 21  5  1  0
 22 16  2  0
 22 21  1  0
 23  8  1  0
M  END
$$$$

     RDKit          3D

 27 30  0  0  0  0  0  0  0  0999 V2000
    4.7545   41.1804   47.5269 C   0  0  0  0  0  0  0  0  0  0  0  0
    7.0214   42.7760   47.9595 C   0  0  0  0  0  0  0  0  0  0  0  0
    3.0923   46.1337   56.9390 C   0  0  0  0  0  0  0  0  0  0  0  0
    4.7501   42.1375   48.5449 C   0  0  0  0  0  0  0  0  0  0  0  0
    7.3614   46.0157   51.0019 C   0  0  0  0  0  0  0  0  0  0  0  0
    5.8918   41.0117   46.7323 C   0  0  0  0  0  0  0  0  0  0  0  0
    8.1713   46.4282   53.6212 C   0  0  0  0  0  0  0  0  0  0  0  0
    3.2800   44.7679   56.3063 C   0  0  0  0  0  0  0  0  0  0  0  0
    9.7346   46.2785   50.2254 C   0  0  0  0  0  0  0  0  0  0  0  0
    6.8391   46.1039   53.3551 C   0  0  0  0  0  0  0  0  0  0  0  0
    8.2131   43.5407   48.1826 N   0  0  0  0  0  0  0  0  0  0  0  0
    6.4239   45.8784   52.0356 C   0  0  0  0  0  0  0  0  0  0  0  0
    5.8816   42.9282   48.7639 C   0  0  0  0  0  0  0  0  0  0  0  0
    8.6980   46.3165   51.3126 C   0  0  0  0  0  0  0  0  0  0  0  0
    6.9044   45.8091   49.2733 S   0  0  0  0  0  0  0  0  0  0  0  0
    5.0619   45.5488   51.7142 N   0  0  0  0  0  0  0  0  0  0  0  0
    9.6844   47.4984   49.4353 N   0  0  0  0  0  0  0  0  0  0  0  0
    8.3350   44.7530   48.9377 C   0  0  0  0  0  0  0  0  0  0  0  0
    1.8095   44.6529   54.2850 C   0  0  0  0  0  0  0  0  0  0  0  0
    9.5122   45.1084   49.3684 N   0  0  0  0  0  0  0  0  0  0  0  0
    9.0695   46.5157   52.6046 N   0  0  0  0  0  0  0  0  0  0  0  0
    3.9784   45.2563   52.6087 C   0  0  0  0  0  0  0  0  0  0  0  0
    7.0228   41.8040   46.9528 C   0  0  0  0  0  0  0  0  0  0  0  0
    3.0805   44.8526   54.8331 C   0  0  0  0  0  0  0  0  0  0  0  0
    1.6224   44.7463   52.9035 C   0  0  0  0  0  0  0  0  0  0  0  0
    4.1597   45.1555   53.9964 C   0  0  0  0  0  0  0  0  0  0  0  0
    2.7044   45.0446   52.0700 C   0  0  0  0  0  0  0  0  0  0  0  0
  1  4  4  0
  2 13  4  0
  4 13  4  0
  5 14  4  0
  5 12  4  0
  6  1  4  0
  7 10  4  0
  8  3  1  0
  9 17  1  0
  9 14  1  0
 11  2  1  0
 11 18  1  0
 12 10  4  0
 14 21  4  0
 15  5  1  0
 16 12  1  0
 16 22  1  0
 18 20  2  0
 18 15  1  0
 19 24  4  0
 20  9  1  0
 21  7  4  0
 22 26  4  0
 23  6  4  0
 23  2  4  0
 24  8  1  0
 25 19  4  0
 26 24  4  0
 27 25  4  0
 27 22  4  0
M  END
$$$$

     RDKit          3D

 36 40  0  0  0  0  0  0  0  0999 V2000
    2.9992   45.1028   47.3333 C   0  0  0  0  0  0  0  0  0  0  0  0
    4.4554   44.3257   52.8068 C   0  0  0  0  0  0  0  0  0  0  0  0
    4.0417   45.6575   53.2314 C   0  0  0  0  0  0  0  0  0  0  0  0
    0.7154   44.3984   45.7830 N   0  0  0  0  0  0  0  0  0  0  0  0
    0.5664   46.4850   45.0549 O   0  0  0  0  0  0  0  0  0  0  0  0
    9.8367   45.0933   56.4441 N   0  0  0  0  0  0  0  0  0  0  0  0
    3.3493   43.4771   52.8069 O   0  0  0  0  0  0  0  0  0  0  0  0
    6.1061   45.2195   54.2499 C   0  0  0  0  0  0  0  0  0  0  0  0
    8.3515   44.4971   54.9698 C   0  0  0  0  0  0  0  0  0  0  0  0
    4.7228   44.7700   54.1845 N   0  0  0  0  0  0  0  0  0  0  0  0
    2.4680   43.6292   47.2968 C   0  0  0  0  0  0  0  0  0  0  0  0
    0.9763   43.6015   46.9767 C   0  0  0  0  0  0  0  0  0  0  0  0
    5.0279   43.6919   49.1507 C   0  0  0  0  0  0  0  0  0  0  0  0
    3.8787   43.1171   49.0701 C   0  0  0  0  0  0  0  0  0  0  0  0
    0.9952   45.7409   46.0984 N   0  0  0  0  0  0  0  0  0  0  0  0
    3.5586   39.7931   51.4528 Cl  0  0  0  0  0  0  0  0  0  0  0  0
    4.5178   45.2733   47.3708 C   0  0  0  0  0  0  0  0  0  0  0  0
   10.4755   44.8963   55.2763 C   0  0  0  0  0  0  0  0  0  0  0  0
    8.0157   45.1082   51.9163 O   0  0  0  0  0  0  0  0  0  0  0  0
    9.0644   44.4215   51.8114 C   0  0  0  0  0  0  0  0  0  0  0  0
    8.5472   44.8433   56.2595 N   0  0  0  0  0  0  0  0  0  0  0  0
    9.8830   44.1732   52.9591 N   0  0  0  0  0  0  0  0  0  0  0  0
    8.8016   44.3498   49.3023 N   0  0  0  0  0  0  0  0  0  0  0  0
    2.7018   42.8999   48.5938 C   0  0  0  0  0  0  0  0  0  0  0  0
    7.0369   44.0324   54.4426 C   0  0  0  0  0  0  0  0  0  0  0  0
    3.8758   42.2088   52.5698 C   0  0  0  0  0  0  0  0  0  0  0  0
    2.4466   45.8911   46.1497 C   0  0  0  0  0  0  0  0  0  0  0  0
    9.5184   43.9734   50.4822 C   0  0  0  0  0  0  0  0  0  0  0  0
    9.5654   44.5357   54.3109 C   0  0  0  0  0  0  0  0  0  0  0  0
    6.3910   43.1429   49.9573 S   0  0  0  0  0  0  0  0  0  0  0  0
    5.3776   44.6816   48.2328 C   0  0  0  0  0  0  0  0  0  0  0  0
   10.7158   43.5006   50.3590 N   0  0  0  0  0  0  0  0  0  0  0  0
    2.8562   41.3799   51.8232 C   0  0  0  0  0  0  0  0  0  0  0  0
    6.7023   44.9845   48.2335 N   0  0  0  0  0  0  0  0  0  0  0  0
   11.9419   45.0791   55.0891 C   0  0  0  0  0  0  0  0  0  0  0  0
    7.3801   44.2576   49.1522 C   0  0  0  0  0  0  0  0  0  0  0  0
  1 27  1  0
  1 11  1  0
  2  7  1  0
  2 10  1  0
  3  2  1  0
  3 10  1  0
  4 12  1  0
  5 15  1  0
  7 26  1  0
  9 21  4  0
 10  8  1  0
 11 12  1  0
 11 24  1  0
 13 14  2  0
 13 30  4  0
 15  4  1  0
 17  1  1  0
 17 31  2  0
 18 35  1  0
 18  6  4  0
 19 20  2  0
 20 22  1  0
 21  6  4  0
 22 29  1  0
 23 28  1  0
 24 14  2  0
 25  8  1  0
 25  9  1  0
 27 15  1  0
 28 32  2  0
 28 20  1  0
 29  9  4  0
 29 18  4  0
 31 34  4  0
 31 13  4  0
 33 26  1  0
 33 16  1  0
 34 36  4  0
 36 23  1  0
 36 30  4  0
M  END
$$$$

     RDKit          3D

 27 29  0  0  0  0  0  0  0  0999 V2000
    3.2969   43.2563   42.6212 C   0  0  0  0  0  0  0  0  0  0  0  0
    8.2448   46.2536   55.0524 O   0  0  0  0  0  0  0  0  0  0  0  0
    5.5289   43.8850   47.0728 C   0  0  0  0  0  0  0  0  0  0  0  0
    4.3991   44.5626   47.5501 C   0  0  0  0  0  0  0  0  0  0  0  0
    6.1593   42.4311   55.6383 C   0  0  0  0  0  0  0  0  0  0  0  0
    2.4134   42.1856   42.7533 O   0  0  0  0  0  0  0  0  0  0  0  0
    6.9049   43.6461   58.0409 C   0  0  0  0  0  0  0  0  0  0  0  0
    3.2915   44.7511   46.7199 C   0  0  0  0  0  0  0  0  0  0  0  0
    7.1339   44.2890   54.3495 N   0  0  0  0  0  0  0  0  0  0  0  0
    6.7082   44.1471   49.2264 N   0  0  0  0  0  0  0  0  0  0  0  0
    4.4592   43.0658   43.5381 C   0  0  0  0  0  0  0  0  0  0  0  0
    4.4336   43.5827   44.9206 C   0  0  0  0  0  0  0  0  0  0  0  0
    7.3349   44.7475   52.0102 C   0  0  0  0  0  0  0  0  0  0  0  0
    6.8313   43.6631   55.6092 C   0  0  0  0  0  0  0  0  0  0  0  0
    7.2011   44.2641   56.8227 C   0  0  0  0  0  0  0  0  0  0  0  0
    8.3229   44.0975   51.0886 C   0  0  0  0  0  0  0  0  0  0  0  0
    7.9648   45.8271   52.7649 N   0  0  0  0  0  0  0  0  0  0  0  0
    5.4623   42.4280   43.1198 O   0  0  0  0  0  0  0  0  0  0  0  0
    5.8628   41.8122   56.8561 C   0  0  0  0  0  0  0  0  0  0  0  0
    9.4775   43.7216   51.5331 N   0  0  0  0  0  0  0  0  0  0  0  0
    6.2355   42.4200   58.0575 C   0  0  0  0  0  0  0  0  0  0  0  0
    7.9602   43.7907   49.7429 N   0  0  0  0  0  0  0  0  0  0  0  0
    5.5413   43.3992   45.7619 C   0  0  0  0  0  0  0  0  0  0  0  0
    3.3086   44.2630   45.4105 C   0  0  0  0  0  0  0  0  0  0  0  0
    6.8053   43.7317   53.0443 C   0  0  0  0  0  0  0  0  0  0  0  0
    7.8122   45.5126   54.1308 C   0  0  0  0  0  0  0  0  0  0  0  0
    6.6727   43.6859   47.9040 N   0  0  0  0  0  0  0  0  0  0  0  0
  1  6  1  0
  3  4  4  0
  4  8  4  0
  5 19  4  0
  5 14  4  0
  9 14  1  0
  9 26  1  0
 10 22  1  0
 11  1  1  0
 11 12  1  0
 12 24  4  0
 13 16  1  0
 13 25  1  0
 13 17  1  0
 14 15  4  0
 15  7  4  0
 16 20  2  0
 17 26  1  0
 18 11  2  0
 19 21  4  0
 21  7  4  0
 22 16  1  0
 23 12  4  0
 23  3  4  0
 24  8  4  0
 25  9  1  0
 26  2  2  0
 27  3  1  0
 27 10  1  0
M  END
$$$$

     RDKit          3D

 18 19  0  0  0  0  0  0  0  0999 V2000
    8.2925   46.3904   50.7842 C   0  0  0  0  0  0  0  0  0  0  0  0
    6.5737   47.6658   51.6451 N   0  0  0  0  0  0  0  0  0  0  0  0
    8.9989   43.8664   49.0780 N   0  0  0  0  0  0  0  0  0  0  0  0
    5.2558   42.3128   50.7090 C   0  0  0  0  0  0  0  0  0  0  0  0
    7.8114   43.4685   49.8146 C   0  0  0  0  0  0  0  0  0  0  0  0
    8.4747   47.3020   53.0156 O   0  0  0  0  0  0  0  0  0  0  0  0
   11.1034   44.8990   49.0555 N   0  0  0  0  0  0  0  0  0  0  0  0
    9.9045   44.8774   49.5319 C   0  0  0  0  0  0  0  0  0  0  0  0
    5.2162   40.9294   48.7222 C   0  0  0  0  0  0  0  0  0  0  0  0
    6.2737   47.3094   50.4595 N   0  0  0  0  0  0  0  0  0  0  0  0
    4.0429   41.7543   51.1228 C   0  0  0  0  0  0  0  0  0  0  0  0
    7.0868   42.4592   49.0599 N   0  0  0  0  0  0  0  0  0  0  0  0
    3.4166   40.7832   50.3364 C   0  0  0  0  0  0  0  0  0  0  0  0
    9.5682   45.7668   50.6042 N   0  0  0  0  0  0  0  0  0  0  0  0
    7.8523   47.1347   51.9346 C   0  0  0  0  0  0  0  0  0  0  0  0
    4.0031   40.3708   49.1363 C   0  0  0  0  0  0  0  0  0  0  0  0
    5.8484   41.9014   49.5049 C   0  0  0  0  0  0  0  0  0  0  0  0
    7.3287   46.5255   49.8823 C   0  0  0  0  0  0  0  0  0  0  0  0
  1 18  2  0
  1 15  1  0
  3  8  1  0
  5  3  1  0
  8  7  2  0
  8 14  1  0
  9 17  4  0
 10  2  2  0
 11  4  4  0
 12 17  1  0
 12  5  1  0
 13 11  4  0
 14  1  1  0
 15  6  2  0
 15  2  1  0
 16  9  4  0
 16 13  4  0
 17  4  4  0
 18 10  1  0
M  END
$$$$

     RDKit          3D

 36 37  0  0  0  0  0  0  0  0999 V2000
   10.4327   45.8772   50.0233 N   0  0  0  0  0  0  0  0  0  0  0  0
    0.7590   44.8075   55.3709 C   0  0  0  0  0  0  0  0  0  0  0  0
    3.8172   46.0392   54.4902 C   0  0  0  0  0  0  0  0  0  0  0  0
    1.6684   45.5967   53.3265 C   0  0  0  0  0  0  0  0  0  0  0  0
    1.0177   44.3853   53.9470 C   0  0  0  0  0  0  0  0  0  0  0  0
    3.4894   44.1060   51.1721 O   0  0  0  0  0  0  0  0  0  0  0  0
    1.7283   45.9475   55.6469 C   0  0  0  0  0  0  0  0  0  0  0  0
    7.2625   42.6725   48.3617 N   0  0  0  0  0  0  0  0  0  0  0  0
    5.1230   41.8119   49.2941 C   0  0  0  0  0  0  0  0  0  0  0  0
    4.1989   44.3206   54.8477 Cl  0  0  0  0  0  0  0  0  0  0  0  0
    2.9407   46.1490   51.4090 O   0  0  0  0  0  0  0  0  0  0  0  0
    6.8711   43.7662   50.5554 C   0  0  0  0  0  0  0  0  0  0  0  0
    7.6467   43.5774   49.4083 C   0  0  0  0  0  0  0  0  0  0  0  0
   10.1845   46.3525   52.7906 N   0  0  0  0  0  0  0  0  0  0  0  0
    5.9280   41.0290   47.1537 C   0  0  0  0  0  0  0  0  0  0  0  0
   -0.2959   44.0768   53.2560 C   0  0  0  0  0  0  0  0  0  0  0  0
    5.4261   45.1434   54.0753 C   0  0  0  0  0  0  0  0  0  0  0  0
    5.6783   46.4435   54.0494 C   0  0  0  0  0  0  0  0  0  0  0  0
    7.9352   47.0306   53.2198 C   0  0  0  0  0  0  0  0  0  0  0  0
    8.4422   45.3429   51.3901 C   0  0  0  0  0  0  0  0  0  0  0  0
    6.4642   47.0354   52.9247 C   0  0  0  0  0  0  0  0  0  0  0  0
    4.8069   40.2020   47.0341 C   0  0  0  0  0  0  0  0  0  0  0  0
    8.4255   47.8704   54.2234 C   0  0  0  0  0  0  0  0  0  0  0  0
    5.2949   47.2572   55.1519 N   0  0  0  0  0  0  0  0  0  0  0  0
    3.7036   42.9100   51.8549 C   0  0  0  0  0  0  0  0  0  0  0  0
    2.4965   45.2601   52.1169 C   0  0  0  0  0  0  0  0  0  0  0  0
    7.2854   44.6361   51.5115 N   0  0  0  0  0  0  0  0  0  0  0  0
    3.8435   40.1806   48.0459 C   0  0  0  0  0  0  0  0  0  0  0  0
    2.3752   46.3284   54.3917 N   0  0  0  0  0  0  0  0  0  0  0  0
    9.7550   47.9218   54.4876 N   0  0  0  0  0  0  0  0  0  0  0  0
   10.6321   47.1685   53.7788 C   0  0  0  0  0  0  0  0  0  0  0  0
    6.0956   41.8395   48.2824 C   0  0  0  0  0  0  0  0  0  0  0  0
    9.2256   45.1498   50.2338 C   0  0  0  0  0  0  0  0  0  0  0  0
    4.0015   40.9860   49.1765 C   0  0  0  0  0  0  0  0  0  0  0  0
    8.8611   46.2599   52.4817 C   0  0  0  0  0  0  0  0  0  0  0  0
    8.8032   44.2783   49.2802 N   0  0  0  0  0  0  0  0  0  0  0  0
  2  7  1  0
  3 10  1  0
  4 26  1  0
  4  5  1  0
  4 29  1  0
  5 16  1  0
  5  2  1  0
  6 25  1  0
  8 13  1  0
 11 26  2  0
 12 27  4  0
 13 36  4  0
 13 12  4  0
 14 31  4  0
 15 22  4  0
 15 32  4  0
 17 18  2  0
 18 24  1  0
 19 23  4  0
 20 35  1  0
 21 19  1  0
 21 18  1  0
 22 28  4  0
 23 30  4  0
 27 20  4  0
 28 34  4  0
 29  3  1  0
 29  7  1  0
 31 30  4  0
 32  8  1  0
 32  9  4  0
 33  1  1  0
 33 20  4  0
 34  9  4  0
 35 14  4  0
 35 19  4  0
 36 33  4  0
M  END
$$$$

     RDKit          3D

 18 17  0  0  0  0  0  0  0  0999 V2000
    7.3365   47.5257   55.3289 O   0  0  0  0  0  0  0  0  0  0  0  0
    5.0930   42.2449   49.1896 C   0  0  0  0  0  0  0  0  0  0  0  0
    4.8659   40.5168   47.0041 C   0  0  0  0  0  0  0  0  0  0  0  0
    7.9150   44.7867   52.3257 C   0  0  0  0  0  0  0  0  0  0  0  0
    6.5468   47.1033   51.9701 C   0  0  0  0  0  0  0  0  0  0  0  0
    9.5500   45.1306   50.5209 C   0  0  0  0  0  0  0  0  0  0  0  0
    7.4191   42.7539   48.5382 N   0  0  0  0  0  0  0  0  0  0  0  0
    6.1842   42.0666   48.3249 C   0  0  0  0  0  0  0  0  0  0  0  0
    3.7817   40.6974   47.8678 C   0  0  0  0  0  0  0  0  0  0  0  0
    6.5219   46.8329   53.3956 N   0  0  0  0  0  0  0  0  0  0  0  0
    8.8818   45.5185   51.7883 C   0  0  0  0  0  0  0  0  0  0  0  0
    7.6299   43.6717   49.6461 C   0  0  0  0  0  0  0  0  0  0  0  0
   10.6948   45.6565   50.2345 N   0  0  0  0  0  0  0  0  0  0  0  0
    9.4825   46.9213   52.7285 S   0  0  0  0  0  0  0  0  0  0  0  0
    6.0641   41.2003   47.2329 C   0  0  0  0  0  0  0  0  0  0  0  0
    8.9831   44.1995   49.5875 N   0  0  0  0  0  0  0  0  0  0  0  0
    7.3598   47.7780   53.9995 N   0  0  0  0  0  0  0  0  0  0  0  0
    3.8951   41.5614   48.9607 C   0  0  0  0  0  0  0  0  0  0  0  0
  3  9  4  0
  4 11  2  0
  5 10  1  0
  6 13  2  0
  6 11  1  0
  7  8  1  0
  7 12  1  0
  8  2  4  0
  9 18  4  0
 10 17  1  0
 11 14  1  0
 12 16  1  0
 15  3  4  0
 15  8  4  0
 16  6  1  0
 17  1  1  0
 18  2  4  0
M  END
$$$$

     RDKit          3D

 28 31  0  0  0  0  0  0  0  0999 V2000
    6.8393   45.6681   49.5444 S   0  0  0  0  0  0  0  0  0  0  0  0
    4.9490   41.9002   48.6037 C   0  0  0  0  0  0  0  0  0  0  0  0
    3.3053   45.0690   53.7135 C   0  0  0  0  0  0  0  0  0  0  0  0
    9.4397   46.2698   50.9501 C   0  0  0  0  0  0  0  0  0  0  0  0
    7.2479   46.4457   54.0202 N   0  0  0  0  0  0  0  0  0  0  0  0
    6.4204   40.7508   47.0642 C   0  0  0  0  0  0  0  0  0  0  0  0
    6.0022   42.7374   48.9821 C   0  0  0  0  0  0  0  0  0  0  0  0
    8.3810   43.4101   48.7879 N   0  0  0  0  0  0  0  0  0  0  0  0
    8.3404   46.5608   53.2197 C   0  0  0  0  0  0  0  0  0  0  0  0
    9.4079   45.0635   50.1157 N   0  0  0  0  0  0  0  0  0  0  0  0
    1.9756   44.7214   56.9399 N   0  0  0  0  0  0  0  0  0  0  0  0
    9.4856   47.4597   50.1151 N   0  0  0  0  0  0  0  0  0  0  0  0
    0.9649   44.4654   53.5907 C   0  0  0  0  0  0  0  0  0  0  0  0
    6.9772   45.9402   51.3192 C   0  0  0  0  0  0  0  0  0  0  0  0
    8.2282   46.3025   51.8469 C   0  0  0  0  0  0  0  0  0  0  0  0
    9.4484   46.8869   53.7225 O   0  0  0  0  0  0  0  0  0  0  0  0
    3.3833   45.0941   52.3126 C   0  0  0  0  0  0  0  0  0  0  0  0
    8.3349   44.6515   49.5030 C   0  0  0  0  0  0  0  0  0  0  0  0
    2.1006   44.7579   54.3505 C   0  0  0  0  0  0  0  0  0  0  0  0
    1.0356   44.4836   52.1952 C   0  0  0  0  0  0  0  0  0  0  0  0
    5.1577   40.9078   47.6423 C   0  0  0  0  0  0  0  0  0  0  0  0
    7.2685   42.5964   48.3940 C   0  0  0  0  0  0  0  0  0  0  0  0
    7.4727   41.5896   47.4439 C   0  0  0  0  0  0  0  0  0  0  0  0
    6.0366   46.0681   53.5312 C   0  0  0  0  0  0  0  0  0  0  0  0
    4.6027   45.3960   51.6185 N   0  0  0  0  0  0  0  0  0  0  0  0
    5.8712   45.7915   52.1677 C   0  0  0  0  0  0  0  0  0  0  0  0
    2.0313   44.7377   55.7840 C   0  0  0  0  0  0  0  0  0  0  0  0
    2.2416   44.7955   51.5603 C   0  0  0  0  0  0  0  0  0  0  0  0
  1 14  1  0
  2  7  4  0
  3 19  4  0
  4 12  1  0
  4 15  1  0
  6 23  4  0
  6 21  4  0
  8 22  1  0
  8 18  1  0
  9 16  2  0
  9  5  4  0
 10  4  1  0
 13 19  4  0
 14 26  4  0
 15 14  4  0
 15  9  4  0
 17  3  4  0
 18 10  2  0
 18  1  1  0
 19 27  1  0
 20 13  4  0
 21  2  4  0
 22  7  4  0
 23 22  4  0
 24  5  4  0
 25 17  1  0
 26 25  1  0
 26 24  4  0
 27 11  3  0
 28 20  4  0
 28 17  4  0
M  END
$$$$

     RDKit          3D

 23 25  0  0  0  0  0  0  0  0999 V2000
    2.1467   46.2202   53.1527 C   0  0  0  0  0  0  0  0  0  0  0  0
    7.4493   46.6934   53.1791 S   0  0  0  0  0  0  0  0  0  0  0  0
    6.6473   41.4761   48.7049 C   0  0  0  0  0  0  0  0  0  0  0  0
    7.9103   43.5525   49.3154 C   0  0  0  0  0  0  0  0  0  0  0  0
    5.5840   41.7906   49.5665 C   0  0  0  0  0  0  0  0  0  0  0  0
    2.3315   45.9906   54.6495 C   0  0  0  0  0  0  0  0  0  0  0  0
    4.6377   45.1653   53.8741 C   0  0  0  0  0  0  0  0  0  0  0  0
    4.4847   40.9333   49.6696 C   0  0  0  0  0  0  0  0  0  0  0  0
    8.1005   46.1595   50.6166 N   0  0  0  0  0  0  0  0  0  0  0  0
    5.8620   46.7232   52.2751 C   0  0  0  0  0  0  0  0  0  0  0  0
    7.7824   42.3369   48.5814 N   0  0  0  0  0  0  0  0  0  0  0  0
    8.4211   47.0934   51.6902 C   0  0  0  0  0  0  0  0  0  0  0  0
    5.8455   45.6822   51.2501 N   0  0  0  0  0  0  0  0  0  0  0  0
    6.7150   46.1067   50.1597 C   0  0  0  0  0  0  0  0  0  0  0  0
    6.5977   40.2988   47.9508 C   0  0  0  0  0  0  0  0  0  0  0  0
   10.3311   46.0704   49.8393 N   0  0  0  0  0  0  0  0  0  0  0  0
    5.4980   39.4414   48.0542 C   0  0  0  0  0  0  0  0  0  0  0  0
    4.6901   46.5602   53.2407 C   0  0  0  0  0  0  0  0  0  0  0  0
    3.3681   46.9222   52.5457 C   0  0  0  0  0  0  0  0  0  0  0  0
    3.5284   45.0717   54.9304 C   0  0  0  0  0  0  0  0  0  0  0  0
    9.1557   45.5325   49.8632 C   0  0  0  0  0  0  0  0  0  0  0  0
    8.9558   44.2973   49.1623 N   0  0  0  0  0  0  0  0  0  0  0  0
    4.4419   39.7586   48.9133 C   0  0  0  0  0  0  0  0  0  0  0  0
  1  6  1  0
  3  5  4  0
  4 22  2  3
  6 20  1  0
  7 20  1  0
  8  5  4  0
  9 14  1  0
  9 12  1  0
 10  2  1  0
 10 18  1  0
 11  3  1  0
 11  4  1  0
 12  2  1  0
 13 10  1  0
 14 13  1  0
 15  3  4  0
 17 15  4  0
 17 23  4  0
 18  7  1  0
 19  1  1  0
 19 18  1  0
 21 16  2  0
 21  9  1  0
 22 21  1  0
 23  8  4  0
M  END
$$$$

     RDKit          3D

 27 29  0  0  0  0  0  0  0  0999 V2000
    4.6184   46.5569   53.3343 N   0  0  0  0  0  0  0  0  0  0  0  0
    9.2751   46.1476   51.2112 C   0  0  0  0  0  0  0  0  0  0  0  0
    5.1232   42.2185   49.0264 C   0  0  0  0  0  0  0  0  0  0  0  0
    7.2531   44.3001   50.4972 S   0  0  0  0  0  0  0  0  0  0  0  0
    6.3852   42.6056   48.4662 N   0  0  0  0  0  0  0  0  0  0  0  0
    6.5146   47.4523   51.9470 C   0  0  0  0  0  0  0  0  0  0  0  0
    5.5556   46.8243   54.4375 C   0  0  0  0  0  0  0  0  0  0  0  0
    7.2952   43.5925   48.9699 C   0  0  0  0  0  0  0  0  0  0  0  0
    7.2410   46.3959   52.6387 N   0  0  0  0  0  0  0  0  0  0  0  0
    3.2520   42.5728   50.5370 C   0  0  0  0  0  0  0  0  0  0  0  0
    4.4773   41.0892   48.5109 C   0  0  0  0  0  0  0  0  0  0  0  0
    2.5479   39.4989   48.4476 C   0  0  0  0  0  0  0  0  0  0  0  0
    8.3596   44.0198   48.2591 N   0  0  0  0  0  0  0  0  0  0  0  0
    1.7651   39.8794   47.3575 O   0  0  0  0  0  0  0  0  0  0  0  0
    2.6193   41.4377   50.0241 C   0  0  0  0  0  0  0  0  0  0  0  0
    1.1778   38.7318   46.9449 N   0  0  0  0  0  0  0  0  0  0  0  0
    3.2341   40.6914   49.0144 C   0  0  0  0  0  0  0  0  0  0  0  0
   10.2670   45.5124   48.3857 N   0  0  0  0  0  0  0  0  0  0  0  0
    9.1014   44.9238   48.9541 C   0  0  0  0  0  0  0  0  0  0  0  0
    8.6369   45.2287   50.2380 C   0  0  0  0  0  0  0  0  0  0  0  0
    8.6071   46.5994   52.3972 N   0  0  0  0  0  0  0  0  0  0  0  0
    4.5188   45.1192   53.1273 C   0  0  0  0  0  0  0  0  0  0  0  0
    5.0109   47.1907   52.0639 C   0  0  0  0  0  0  0  0  0  0  0  0
    4.1189   48.7135   51.8425 Cl  0  0  0  0  0  0  0  0  0  0  0  0
    7.0336   46.5661   54.0759 C   0  0  0  0  0  0  0  0  0  0  0  0
    4.4978   42.9628   50.0378 C   0  0  0  0  0  0  0  0  0  0  0  0
   10.4519   46.5439   51.0025 O   0  0  0  0  0  0  0  0  0  0  0  0
  1 22  1  0
  1  7  1  0
  2 21  1  0
  2 27  2  0
  3 26  4  0
  4 20  4  0
  5  3  1  0
  5  8  1  0
  6 23  1  0
  6  9  1  0
  8 13  4  0
  8  4  4  0
  9 25  1  0
 10 26  4  0
 11  3  4  0
 12 17  1  0
 13 19  4  0
 14 12  1  0
 14 16  1  0
 15 10  4  0
 17 11  4  0
 17 15  4  0
 19 18  1  0
 19 20  4  0
 20  2  1  0
 21  9  1  0
 23 24  1  0
 23  1  1  0
 25  7  1  0
M  END
$$$$

     RDKit          3D

 36 39  0  0  0  0  0  0  0  0999 V2000
    7.0326   45.1183   56.0911 C   0  0  0  0  0  0  0  0  0  0  0  0
    6.9829   46.6067   52.1471 C   0  0  0  0  0  0  0  0  0  0  0  0
    5.8143   44.3790   50.1322 S   0  0  0  0  0  0  0  0  0  0  0  0
    9.5434   47.7525   52.7694 C   0  0  0  0  0  0  0  0  0  0  0  0
    6.0212   47.1475   51.5348 O   0  0  0  0  0  0  0  0  0  0  0  0
    7.8678   45.7029   51.4556 N   0  0  0  0  0  0  0  0  0  0  0  0
    5.9986   47.4530   54.3183 C   0  0  0  0  0  0  0  0  0  0  0  0
    2.2670   43.8053   52.5493 O   0  0  0  0  0  0  0  0  0  0  0  0
    0.1159   39.8227   46.8320 O   0  0  0  0  0  0  0  0  0  0  0  0
    1.8423   42.7165   49.4219 C   0  0  0  0  0  0  0  0  0  0  0  0
    8.1546   44.4825   49.2583 C   0  0  0  0  0  0  0  0  0  0  0  0
    9.5338   44.7905   49.0845 N   0  0  0  0  0  0  0  0  0  0  0  0
    7.3914   44.9386   50.3346 C   0  0  0  0  0  0  0  0  0  0  0  0
    3.2742   41.5342   47.3346 C   0  0  0  0  0  0  0  0  0  0  0  0
    2.4701   46.1098   52.1484 C   0  0  0  0  0  0  0  0  0  0  0  0
    1.2195   41.7789   48.5928 C   0  0  0  0  0  0  0  0  0  0  0  0
    1.9358   41.1846   47.5431 C   0  0  0  0  0  0  0  0  0  0  0  0
    4.8421   45.2905   54.0832 C   0  0  0  0  0  0  0  0  0  0  0  0
    5.2242   46.3971   54.9839 N   0  0  0  0  0  0  0  0  0  0  0  0
    9.9439   46.3186   52.6011 C   0  0  0  0  0  0  0  0  0  0  0  0
    7.2451   46.9427   53.5914 C   0  0  0  0  0  0  0  0  0  0  0  0
    5.6841   44.0871   54.2180 N   0  0  0  0  0  0  0  0  0  0  0  0
    2.6724   44.8795   52.9638 C   0  0  0  0  0  0  0  0  0  0  0  0
    6.6687   43.9509   55.2513 C   0  0  0  0  0  0  0  0  0  0  0  0
    5.5056   43.0021   53.2665 C   0  0  0  0  0  0  0  0  0  0  0  0
    5.8083   45.9968   56.2702 C   0  0  0  0  0  0  0  0  0  0  0  0
    3.1821   43.0583   49.2076 C   0  0  0  0  0  0  0  0  0  0  0  0
    5.2838   42.7807   47.9043 N   0  0  0  0  0  0  0  0  0  0  0  0
    1.3143   40.1839   46.6716 C   0  0  0  0  0  0  0  0  0  0  0  0
    3.3702   44.9545   54.2834 C   0  0  0  0  0  0  0  0  0  0  0  0
    7.2632   42.8560   55.4329 O   0  0  0  0  0  0  0  0  0  0  0  0
    8.3892   47.9460   53.7579 C   0  0  0  0  0  0  0  0  0  0  0  0
    3.9085   42.4649   48.1645 C   0  0  0  0  0  0  0  0  0  0  0  0
    9.1828   45.4176   51.9701 C   0  0  0  0  0  0  0  0  0  0  0  0
    7.4775   43.7357   48.3476 N   0  0  0  0  0  0  0  0  0  0  0  0
    6.1785   43.5846   48.6859 C   0  0  0  0  0  0  0  0  0  0  0  0
  1 26  1  0
  2 21  1  0
  3 13  4  0
  4 32  1  0
  5  2  2  0
  6  2  1  0
  6 34  1  0
  7 19  1  0
  8 23  2  0
  9 29  2  0
 11 12  1  0
 11 13  4  0
 13  6  1  0
 14 33  4  0
 15 23  1  0
 16 10  4  0
 17 14  4  0
 17 16  4  0
 18 30  1  0
 18 19  1  0
 19 26  1  0
 20  4  1  0
 21  7  1  0
 21 32  1  0
 22 18  1  0
 23 30  1  0
 24 22  1  0
 24  1  1  0
 25 22  1  0
 27 10  4  0
 28 33  1  0
 28 36  1  0
 29 17  1  0
 31 24  2  0
 33 27  4  0
 34 20  2  0
 35 11  4  0
 36 35  4  0
 36  3  4  0
M  END
$$$$

     RDKit          3D

 27 30  0  0  0  0  0  0  0  0999 V2000
    4.2918   44.7402   53.1151 C   0  0  0  0  0  0  0  0  0  0  0  0
    1.9852   45.3403   51.6403 C   0  0  0  0  0  0  0  0  0  0  0  0
    5.2883   41.8761   50.2814 C   0  0  0  0  0  0  0  0  0  0  0  0
    8.8292   44.1533   49.9236 N   0  0  0  0  0  0  0  0  0  0  0  0
    3.2224   43.8409   53.0772 C   0  0  0  0  0  0  0  0  0  0  0  0
    4.1607   41.0509   50.3553 C   0  0  0  0  0  0  0  0  0  0  0  0
    3.0446   46.2495   51.6802 C   0  0  0  0  0  0  0  0  0  0  0  0
    9.3812   45.1854   50.7553 C   0  0  0  0  0  0  0  0  0  0  0  0
    7.1922   45.5683   51.6103 N   0  0  0  0  0  0  0  0  0  0  0  0
    4.2793   40.6697   47.9685 C   0  0  0  0  0  0  0  0  0  0  0  0
    5.4606   44.4063   53.9778 C   0  0  0  0  0  0  0  0  0  0  0  0
    7.1186   42.8699   48.9474 N   0  0  0  0  0  0  0  0  0  0  0  0
    6.6474   46.6861   52.3038 C   0  0  0  0  0  0  0  0  0  0  0  0
    5.2459   46.9414   52.4403 N   0  0  0  0  0  0  0  0  0  0  0  0
    7.5326   47.5390   52.7157 N   0  0  0  0  0  0  0  0  0  0  0  0
    3.6550   40.4515   49.1988 C   0  0  0  0  0  0  0  0  0  0  0  0
    8.8746   47.0798   52.3594 C   0  0  0  0  0  0  0  0  0  0  0  0
    2.0757   44.1339   52.3360 C   0  0  0  0  0  0  0  0  0  0  0  0
    3.4106   40.7191   51.9004 Cl  0  0  0  0  0  0  0  0  0  0  0  0
    8.5736   45.8517   51.5742 C   0  0  0  0  0  0  0  0  0  0  0  0
    4.2099   45.9541   52.3967 C   0  0  0  0  0  0  0  0  0  0  0  0
    5.9143   42.1031   49.0457 C   0  0  0  0  0  0  0  0  0  0  0  0
    5.4121   41.4849   47.8955 C   0  0  0  0  0  0  0  0  0  0  0  0
   10.7628   45.5163   50.6576 N   0  0  0  0  0  0  0  0  0  0  0  0
    9.6025   46.7246   53.5658 N   0  0  0  0  0  0  0  0  0  0  0  0
    7.5544   43.8746   49.8681 C   0  0  0  0  0  0  0  0  0  0  0  0
    6.5357   44.7141   50.6215 C   0  0  0  0  0  0  0  0  0  0  0  0
  1  5  4  0
  1 11  1  0
  2 18  4  0
  3  6  4  0
  4  8  1  0
  6 19  1  0
  7  2  4  0
  7 21  4  0
  8 24  1  0
  8 20  2  0
  9 20  1  0
  9 13  1  0
 10 16  4  0
 12 22  1  0
 12 26  1  0
 13 14  1  0
 13 15  2  0
 14 21  1  0
 16  6  4  0
 17 15  1  0
 17 25  1  0
 18  5  4  0
 20 17  1  0
 21  1  4  0
 22  3  4  0
 23 10  4  0
 23 22  4  0
 26  4  2  0
 26 27  1  0
 27  9  1  0
M  END
$$$$

     RDKit          3D

 28 31  0  0  0  0  0  0  0  0999 V2000
   10.6949   47.5109   50.8458 O   0  0  0  0  0  0  0  0  0  0  0  0
    3.6397   44.7862   48.5773 C   0  0  0  0  0  0  0  0  0  0  0  0
    3.9988   42.2968   52.1573 C   0  0  0  0  0  0  0  0  0  0  0  0
    4.2902   39.9268   52.5580 C   0  0  0  0  0  0  0  0  0  0  0  0
    5.9224   43.7555   51.8080 N   0  0  0  0  0  0  0  0  0  0  0  0
    6.2235   41.3449   52.2199 C   0  0  0  0  0  0  0  0  0  0  0  0
    8.6250   43.5066   51.7661 N   0  0  0  0  0  0  0  0  0  0  0  0
    6.9347   46.9258   49.9037 N   0  0  0  0  0  0  0  0  0  0  0  0
    6.9917   46.7262   54.4360 N   0  0  0  0  0  0  0  0  0  0  0  0
    5.3850   42.4579   52.0646 C   0  0  0  0  0  0  0  0  0  0  0  0
    2.8821   45.4255   50.6692 C   0  0  0  0  0  0  0  0  0  0  0  0
    4.5253   46.6990   49.5895 C   0  0  0  0  0  0  0  0  0  0  0  0
    4.0807   45.3398   49.8469 N   0  0  0  0  0  0  0  0  0  0  0  0
    1.9161   44.3611   50.1937 C   0  0  0  0  0  0  0  0  0  0  0  0
    2.4464   43.9029   48.8582 C   0  0  0  0  0  0  0  0  0  0  0  0
    7.8620   47.2339   50.9838 C   0  0  0  0  0  0  0  0  0  0  0  0
   10.2753   46.3534   51.1109 C   0  0  0  0  0  0  0  0  0  0  0  0
    8.3784   44.8711   51.4829 C   0  0  0  0  0  0  0  0  0  0  0  0
    5.6961   47.3001   51.7825 N   0  0  0  0  0  0  0  0  0  0  0  0
    7.3447   47.7954   53.5189 C   0  0  0  0  0  0  0  0  0  0  0  0
   11.2172   45.3037   51.3172 N   0  0  0  0  0  0  0  0  0  0  0  0
    8.8263   46.0967   51.2070 C   0  0  0  0  0  0  0  0  0  0  0  0
    5.7421   46.9934   50.3960 C   0  0  0  0  0  0  0  0  0  0  0  0
    1.2136   44.1437   47.5999 Cl  0  0  0  0  0  0  0  0  0  0  0  0
    3.4513   41.0341   52.4024 C   0  0  0  0  0  0  0  0  0  0  0  0
    7.3005   43.9827   51.7096 N   0  0  0  0  0  0  0  0  0  0  0  0
    5.6765   40.0821   52.4669 C   0  0  0  0  0  0  0  0  0  0  0  0
    6.9298   47.4309   52.1349 C   0  0  0  0  0  0  0  0  0  0  0  0
  2 15  1  0
  3 25  4  0
  3 10  4  0
  4 27  4  0
  5 10  1  0
  5 26  1  0
  6 27  4  0
  7 18  1  0
  8 16  1  0
  8 23  2  0
 10  6  4  0
 11 14  1  0
 12 23  1  0
 12 13  1  0
 13  2  1  0
 13 11  1  0
 15 24  1  0
 15 14  1  0
 16 22  1  0
 16 28  1  0
 17  1  2  0
 18 22  2  3
 20  9  1  0
 21 17  1  0
 22 17  1  0
 23 19  1  0
 25  4  4  0
 26  7  1  0
 26 18  1  0
 28 19  2  0
 28 20  1  0
M  END
$$$$

     RDKit          3D

 23 25  0  0  0  0  0  0  0  0999 V2000
    5.6267   40.2393   46.9810 C   0  0  0  0  0  0  0  0  0  0  0  0
    7.8496   46.3902   53.9717 N   0  0  0  0  0  0  0  0  0  0  0  0
    6.8974   41.5324   48.5845 C   0  0  0  0  0  0  0  0  0  0  0  0
    3.3202   46.7793   51.5841 N   0  0  0  0  0  0  0  0  0  0  0  0
    8.1470   43.3349   50.3652 N   0  0  0  0  0  0  0  0  0  0  0  0
    5.7498   42.2689   48.9141 C   0  0  0  0  0  0  0  0  0  0  0  0
    3.3883   45.3331   51.3765 C   0  0  0  0  0  0  0  0  0  0  0  0
    5.7704   43.3079   49.9018 N   0  0  0  0  0  0  0  0  0  0  0  0
    4.5418   41.9776   48.2706 C   0  0  0  0  0  0  0  0  0  0  0  0
    8.2233   44.9320   51.9509 C   0  0  0  0  0  0  0  0  0  0  0  0
    8.7333   45.8199   53.0129 C   0  0  0  0  0  0  0  0  0  0  0  0
   10.3642   43.8506   51.2397 N   0  0  0  0  0  0  0  0  0  0  0  0
    4.5629   47.3799   51.1000 C   0  0  0  0  0  0  0  0  0  0  0  0
    4.4789   40.9671   47.3063 C   0  0  0  0  0  0  0  0  0  0  0  0
    6.9110   43.7488   50.5988 N   0  0  0  0  0  0  0  0  0  0  0  0
    2.2573   47.2736   50.7288 C   0  0  0  0  0  0  0  0  0  0  0  0
    5.7492   45.4369   51.9569 N   0  0  0  0  0  0  0  0  0  0  0  0
    8.9546   44.0417   51.1788 C   0  0  0  0  0  0  0  0  0  0  0  0
    6.8365   40.5218   47.6207 C   0  0  0  0  0  0  0  0  0  0  0  0
    6.9148   44.7122   51.5422 C   0  0  0  0  0  0  0  0  0  0  0  0
    4.5003   44.7355   52.2359 C   0  0  0  0  0  0  0  0  0  0  0  0
    5.7381   46.8963   51.9462 C   0  0  0  0  0  0  0  0  0  0  0  0
    9.9674   46.0530   53.1014 O   0  0  0  0  0  0  0  0  0  0  0  0
  1 19  4  0
  3 19  4  0
  4 16  1  0
  5 18  4  0
  6  3  4  0
  7  4  1  0
  8  6  1  0
  8 15  1  0
  9 14  4  0
  9  6  4  0
 10 11  1  0
 11  2  1  0
 11 23  2  0
 13  4  1  0
 14  1  4  0
 15  5  4  0
 15 20  4  0
 17 22  1  0
 18 12  1  0
 18 10  4  0
 20 10  4  0
 20 17  1  0
 21 17  1  0
 21  7  1  0
 22 13  1  0
M  END
$$$$

     RDKit          3D

 36 39  0  0  0  0  0  0  0  0999 V2000
    6.8208   46.1640   56.5821 O   0  0  0  0  0  0  0  0  0  0  0  0
    4.2984   43.8880   45.5995 C   0  0  0  0  0  0  0  0  0  0  0  0
    7.0586   47.6220   53.2856 C   0  0  0  0  0  0  0  0  0  0  0  0
    3.4079   45.2708   53.8996 C   0  0  0  0  0  0  0  0  0  0  0  0
    6.8938   45.0927   50.2743 S   0  0  0  0  0  0  0  0  0  0  0  0
    7.6859   45.3332   53.0000 C   0  0  0  0  0  0  0  0  0  0  0  0
    3.2167   44.7298   52.5581 N   0  0  0  0  0  0  0  0  0  0  0  0
    6.6219   44.5693   45.6153 C   0  0  0  0  0  0  0  0  0  0  0  0
    8.0020   45.1207   51.5460 C   0  0  0  0  0  0  0  0  0  0  0  0
    6.0058   47.3420   54.2650 N   0  0  0  0  0  0  0  0  0  0  0  0
    6.6534   44.4692   47.0116 C   0  0  0  0  0  0  0  0  0  0  0  0
    5.6776   43.1833   54.8758 C   0  0  0  0  0  0  0  0  0  0  0  0
    6.3977   45.3922   55.7334 C   0  0  0  0  0  0  0  0  0  0  0  0
    7.8847   44.7423   47.6935 N   0  0  0  0  0  0  0  0  0  0  0  0
    6.4757   43.9111   55.9539 C   0  0  0  0  0  0  0  0  0  0  0  0
    1.8248   44.9851   52.2008 C   0  0  0  0  0  0  0  0  0  0  0  0
    5.4965   44.0614   47.6960 C   0  0  0  0  0  0  0  0  0  0  0  0
    5.7874   45.8965   54.4481 C   0  0  0  0  0  0  0  0  0  0  0  0
    3.1139   44.2507   54.9013 N   0  0  0  0  0  0  0  0  0  0  0  0
    9.2765   44.9702   51.0065 C   0  0  0  0  0  0  0  0  0  0  0  0
    8.0922   44.8536   49.1080 C   0  0  0  0  0  0  0  0  0  0  0  0
    1.2295   43.0918   53.8659 C   0  0  0  0  0  0  0  0  0  0  0  0
    7.8089   43.4941   55.9275 O   0  0  0  0  0  0  0  0  0  0  0  0
    2.0722   44.3758   49.7568 N   0  0  0  0  0  0  0  0  0  0  0  0
   10.4600   44.9835   51.7995 N   0  0  0  0  0  0  0  0  0  0  0  0
    0.9178   43.7926   52.5376 C   0  0  0  0  0  0  0  0  0  0  0  0
    6.0609   43.6434   53.4551 C   0  0  0  0  0  0  0  0  0  0  0  0
    5.4482   44.2831   44.9104 C   0  0  0  0  0  0  0  0  0  0  0  0
    3.5124   44.8081   56.1814 C   0  0  0  0  0  0  0  0  0  0  0  0
    1.3081   46.4668   50.4123 O   0  0  0  0  0  0  0  0  0  0  0  0
    9.3262   44.8273   49.6561 N   0  0  0  0  0  0  0  0  0  0  0  0
    1.7188   45.3276   50.7537 C   0  0  0  0  0  0  0  0  0  0  0  0
    4.3223   43.7753   46.9929 C   0  0  0  0  0  0  0  0  0  0  0  0
    8.1485   46.6620   53.4245 N   0  0  0  0  0  0  0  0  0  0  0  0
    6.2543   45.1026   53.2866 N   0  0  0  0  0  0  0  0  0  0  0  0
    1.6670   44.0578   54.9634 C   0  0  0  0  0  0  0  0  0  0  0  0
  2 33  4  0
  3 10  1  0
  4 19  1  0
  5  9  4  0
  6  9  1  0
  6 34  1  0
  6 35  1  0
  7  4  1  0
  8 28  4  0
  8 11  4  0
 11 17  4  0
 12 27  1  0
 12 15  1  0
 13  1  2  0
 14 11  1  0
 14 21  1  0
 15 13  1  0
 15 23  1  0
 16 32  1  0
 16 26  1  0
 16  7  1  0
 17 33  4  0
 18 10  1  0
 18 13  1  0
 19 29  1  0
 20 25  1  0
 20  9  4  0
 21 31  4  0
 21  5  4  0
 22 36  1  0
 26 22  1  0
 28  2  4  0
 30 32  2  0
 31 20  4  0
 32 24  1  0
 34  3  1  0
 35 18  1  0
 35 27  1  0
 36 19  1  0
M  END
$$$$

     RDKit          3D

 18 19  0  0  0  0  0  0  0  0999 V2000
    6.8738   44.9365   50.2108 S   0  0  0  0  0  0  0  0  0  0  0  0
    9.4793   44.9869   49.7277 C   0  0  0  0  0  0  0  0  0  0  0  0
    8.8847   45.2447   52.7034 C   0  0  0  0  0  0  0  0  0  0  0  0
    5.1097   42.3944   50.4979 C   0  0  0  0  0  0  0  0  0  0  0  0
    7.1346   42.3298   49.0671 N   0  0  0  0  0  0  0  0  0  0  0  0
    5.8284   41.8568   49.4196 C   0  0  0  0  0  0  0  0  0  0  0  0
    8.8442   48.6185   51.0024 O   0  0  0  0  0  0  0  0  0  0  0  0
    8.4361   45.8852   50.2890 C   0  0  0  0  0  0  0  0  0  0  0  0
    8.9355   47.6465   51.9929 C   0  0  0  0  0  0  0  0  0  0  0  0
    3.3114   40.8244   50.1042 C   0  0  0  0  0  0  0  0  0  0  0  0
   10.6879   45.3838   49.5056 N   0  0  0  0  0  0  0  0  0  0  0  0
    5.2832   40.7873   48.6999 C   0  0  0  0  0  0  0  0  0  0  0  0
    8.7485   46.2631   51.6671 N   0  0  0  0  0  0  0  0  0  0  0  0
    4.0271   40.2747   49.0372 C   0  0  0  0  0  0  0  0  0  0  0  0
    3.8539   41.8837   50.8363 C   0  0  0  0  0  0  0  0  0  0  0  0
    9.0276   43.7176   49.2945 N   0  0  0  0  0  0  0  0  0  0  0  0
    9.1917   47.9952   53.1765 O   0  0  0  0  0  0  0  0  0  0  0  0
    7.7675   43.5409   49.4999 C   0  0  0  0  0  0  0  0  0  0  0  0
  1  8  1  0
  2 11  2  0
  2  8  1  0
  4 15  4  0
  5 18  1  0
  6  5  1  0
  6  4  4  0
  8 13  1  0
  9  7  1  0
 10 15  4  0
 12  6  4  0
 13  9  1  0
 13  3  1  0
 14 12  4  0
 14 10  4  0
 16  2  1  0
 17  9  2  0
 18 16  2  0
 18  1  1  0
M  END
$$$$

     RDKit          3D

 23 24  0  0  0  0  0  0  0  0999 V2000
    2.3549   46.0069   52.7722 N   0  0  0  0  0  0  0  0  0  0  0  0
    6.4699   42.0229   48.6183 C   0  0  0  0  0  0  0  0  0  0  0  0
    9.2576   44.2650   49.3342 N   0  0  0  0  0  0  0  0  0  0  0  0
    3.6221   46.7162   52.6135 C   0  0  0  0  0  0  0  0  0  0  0  0
    5.9270   41.4645   49.7798 C   0  0  0  0  0  0  0  0  0  0  0  0
    7.7290   42.6822   48.6676 N   0  0  0  0  0  0  0  0  0  0  0  0
    5.8497   47.0348   53.6214 N   0  0  0  0  0  0  0  0  0  0  0  0
    6.4457   45.6478   51.2016 S   0  0  0  0  0  0  0  0  0  0  0  0
    4.6887   40.8162   49.7313 C   0  0  0  0  0  0  0  0  0  0  0  0
    9.7967   47.5908   51.1637 O   0  0  0  0  0  0  0  0  0  0  0  0
    2.2792   44.7360   53.4314 C   0  0  0  0  0  0  0  0  0  0  0  0
    8.9320   44.7861   50.4689 C   0  0  0  0  0  0  0  0  0  0  0  0
    8.6792   47.0565   51.3893 C   0  0  0  0  0  0  0  0  0  0  0  0
    4.5364   41.2847   47.3596 C   0  0  0  0  0  0  0  0  0  0  0  0
    4.7006   44.8739   53.9334 C   0  0  0  0  0  0  0  0  0  0  0  0
    9.2829   44.1177   51.6777 N   0  0  0  0  0  0  0  0  0  0  0  0
    8.0900   46.0219   50.4972 C   0  0  0  0  0  0  0  0  0  0  0  0
    7.8961   47.4224   52.5098 N   0  0  0  0  0  0  0  0  0  0  0  0
    3.3593   44.1992   54.0040 C   0  0  0  0  0  0  0  0  0  0  0  0
    3.9935   40.7263   48.5212 C   0  0  0  0  0  0  0  0  0  0  0  0
    4.5501   46.3898   53.7833 C   0  0  0  0  0  0  0  0  0  0  0  0
    6.7698   46.7992   52.5484 C   0  0  0  0  0  0  0  0  0  0  0  0
    5.7746   41.9331   47.4081 C   0  0  0  0  0  0  0  0  0  0  0  0
  1 11  1  0
  2  5  4  0
  3 12  2  0
  4  1  1  0
  4 21  1  0
  6  2  1  0
  8 17  1  0
  8 22  1  0
  9  5  4  0
 11 19  2  0
 12 16  1  0
 13 10  2  0
 13 18  1  0
 14 23  4  0
 14 20  4  0
 17 12  1  0
 17 13  1  0
 19 15  1  0
 20  9  4  0
 21  7  1  0
 21 15  1  0
 22 18  2  0
 22  7  1  0
 23  2  4  0
M  END
$$$$

     RDKit          3D

 27 29  0  0  0  0  0  0  0  0999 V2000
    4.1102   41.5893   49.1193 C   0  0  0  0  0  0  0  0  0  0  0  0
    9.0882   44.5269   48.9368 N   0  0  0  0  0  0  0  0  0  0  0  0
    5.1050   44.7597   54.9385 C   0  0  0  0  0  0  0  0  0  0  0  0
    7.3075   46.2390   53.2010 C   0  0  0  0  0  0  0  0  0  0  0  0
    3.9751   40.5070   48.2460 C   0  0  0  0  0  0  0  0  0  0  0  0
    9.3134   45.4031   49.9527 C   0  0  0  0  0  0  0  0  0  0  0  0
   10.4024   46.3195   49.9052 N   0  0  0  0  0  0  0  0  0  0  0  0
    7.3023   44.1205   50.6545 S   0  0  0  0  0  0  0  0  0  0  0  0
    7.5813   42.7371   48.2541 N   0  0  0  0  0  0  0  0  0  0  0  0
    6.0484   45.6367   52.8846 N   0  0  0  0  0  0  0  0  0  0  0  0
    3.3362   46.2284   51.8456 C   0  0  0  0  0  0  0  0  0  0  0  0
    1.5826   46.3572   53.2422 C   0  0  0  0  0  0  0  0  0  0  0  0
    8.4393   46.1696   52.2498 C   0  0  0  0  0  0  0  0  0  0  0  0
    4.5201   45.3627   56.2005 C   0  0  0  0  0  0  0  0  0  0  0  0
    4.8807   45.6938   53.7545 C   0  0  0  0  0  0  0  0  0  0  0  0
    8.0042   43.7578   49.1683 C   0  0  0  0  0  0  0  0  0  0  0  0
    9.4735   46.8469   52.4985 O   0  0  0  0  0  0  0  0  0  0  0  0
    8.4071   45.3429   51.0176 C   0  0  0  0  0  0  0  0  0  0  0  0
    3.6256   45.2831   52.9692 C   0  0  0  0  0  0  0  0  0  0  0  0
    2.1719   46.8313   52.0010 C   0  0  0  0  0  0  0  0  0  0  0  0
    6.3586   41.9880   48.2847 C   0  0  0  0  0  0  0  0  0  0  0  0
    2.3948   45.4715   53.8004 C   0  0  0  0  0  0  0  0  0  0  0  0
    7.4395   46.9144   54.2974 N   0  0  0  0  0  0  0  0  0  0  0  0
    6.2105   40.9083   47.4067 C   0  0  0  0  0  0  0  0  0  0  0  0
    4.3317   46.4412   50.4168 Cl  0  0  0  0  0  0  0  0  0  0  0  0
    5.2962   42.3286   49.1358 C   0  0  0  0  0  0  0  0  0  0  0  0
    5.0249   40.1673   47.3884 C   0  0  0  0  0  0  0  0  0  0  0  0
  1 26  4  0
  2  6  4  0
  3 14  1  0
  4 23  2  0
  5  1  4  0
  6  7  1  0
  6 18  4  0
  8 18  4  0
  9 21  1  0
  9 16  1  0
 10  4  1  0
 10 15  1  0
 11 19  1  0
 12 22  2  0
 13 17  2  0
 13  4  1  0
 15  3  1  0
 16  2  4  0
 16  8  4  0
 18 13  1  0
 19 15  1  0
 19 22  1  0
 20 11  2  0
 20 12  1  0
 21 26  4  0
 24 27  4  0
 24 21  4  0
 25 11  1  0
 27  5  4  0
M  END
$$$$

     RDKit          3D

 36 40  0  0  0  0  0  0  0  0999 V2000
    2.2049   40.3577   45.1809 C   0  0  0  0  0  0  0  0  0  0  0  0
    2.5730   41.9926   52.7233 C   0  0  0  0  0  0  0  0  0  0  0  0
    6.2794   44.4952   48.5998 C   0  0  0  0  0  0  0  0  0  0  0  0
    5.6426   43.2186   48.7601 N   0  0  0  0  0  0  0  0  0  0  0  0
    6.7152   45.1729   49.7875 N   0  0  0  0  0  0  0  0  0  0  0  0
    8.0474   48.6203   54.9454 N   0  0  0  0  0  0  0  0  0  0  0  0
    7.7206   46.9658   51.2276 C   0  0  0  0  0  0  0  0  0  0  0  0
    2.4991   43.9993   54.3193 N   0  0  0  0  0  0  0  0  0  0  0  0
    6.9431   46.5239   52.3166 C   0  0  0  0  0  0  0  0  0  0  0  0
    3.3321   42.4723   45.8952 C   0  0  0  0  0  0  0  0  0  0  0  0
    6.5418   46.9422   54.7190 N   0  0  0  0  0  0  0  0  0  0  0  0
    3.0003   39.7747   44.1146 N   0  0  0  0  0  0  0  0  0  0  0  0
    5.1686   45.5724   56.2375 C   0  0  0  0  0  0  0  0  0  0  0  0
    5.4650   42.6208   53.0595 Cl  0  0  0  0  0  0  0  0  0  0  0  0
    6.5585   45.1220   47.1041 S   0  0  0  0  0  0  0  0  0  0  0  0
    7.1149   47.8429   55.5604 C   0  0  0  0  0  0  0  0  0  0  0  0
    3.9006   44.2501   54.7251 C   0  0  0  0  0  0  0  0  0  0  0  0
    4.5436   41.1632   48.0462 C   0  0  0  0  0  0  0  0  0  0  0  0
    8.6199   47.9910   51.3991 N   0  0  0  0  0  0  0  0  0  0  0  0
    4.3382   42.8079   54.4540 C   0  0  0  0  0  0  0  0  0  0  0  0
    8.0342   48.1729   53.6783 C   0  0  0  0  0  0  0  0  0  0  0  0
    2.1413   44.6893   53.0733 C   0  0  0  0  0  0  0  0  0  0  0  0
    7.5671   46.3241   49.9117 C   0  0  0  0  0  0  0  0  0  0  0  0
    4.8003   42.5219   47.8315 C   0  0  0  0  0  0  0  0  0  0  0  0
    3.6966   40.4579   47.1862 C   0  0  0  0  0  0  0  0  0  0  0  0
    4.6771   45.3416   53.9633 C   0  0  0  0  0  0  0  0  0  0  0  0
    4.1798   43.1754   46.7561 C   0  0  0  0  0  0  0  0  0  0  0  0
    2.8630   42.5809   54.1134 C   0  0  0  0  0  0  0  0  0  0  0  0
    8.2720   46.7419   48.9110 N   0  0  0  0  0  0  0  0  0  0  0  0
    5.5051   45.9853   55.0178 C   0  0  0  0  0  0  0  0  0  0  0  0
    5.8381   45.9924   57.5039 C   0  0  0  0  0  0  0  0  0  0  0  0
    8.8001   48.6102   52.6049 C   0  0  0  0  0  0  0  0  0  0  0  0
    4.0579   44.5813   56.2214 C   0  0  0  0  0  0  0  0  0  0  0  0
    3.0866   41.1131   46.1119 C   0  0  0  0  0  0  0  0  0  0  0  0
    7.1335   47.1690   53.5346 C   0  0  0  0  0  0  0  0  0  0  0  0
    2.8093   45.2218   56.8175 C   0  0  0  0  0  0  0  0  0  0  0  0
  1 34  1  0
  3  5  1  0
  3 15  2  0
  4 24  1  0
  4  3  1  0
  5 23  1  0
  7  9  4  0
  7 19  4  0
  8 17  1  0
  9 35  4  0
 10 27  4  0
 11 16  4  0
 12  1  1  0
 13 31  1  0
 16  6  4  0
 17 26  1  0
 17 33  1  0
 18 25  4  0
 18 24  4  0
 19 32  4  0
 20 14  1  0
 20 28  1  0
 20 17  1  0
 21  6  4  0
 22  8  1  0
 23 29  2  0
 23  7  1  0
 24 27  4  0
 25 34  4  0
 26 30  1  0
 28  2  1  0
 28  8  1  0
 30 11  1  0
 30 13  2  0
 32 21  4  0
 33 13  1  0
 33 36  1  0
 34 10  4  0
 35 11  4  0
 35 21  4  0
M  END
$$$$

     RDKit          3D

 27 31  0  0  0  0  0  0  0  0999 V2000
    8.7502   47.7572   52.1656 O   0  0  0  0  0  0  0  0  0  0  0  0
    2.6523   43.8387   50.2191 C   0  0  0  0  0  0  0  0  0  0  0  0
    3.7887   40.6505   49.2120 C   0  0  0  0  0  0  0  0  0  0  0  0
    7.7931   46.9007   51.6955 C   0  0  0  0  0  0  0  0  0  0  0  0
    4.8383   40.0764   48.4846 C   0  0  0  0  0  0  0  0  0  0  0  0
   10.2658   45.3183   51.6427 N   0  0  0  0  0  0  0  0  0  0  0  0
    9.2105   44.0677   49.9328 N   0  0  0  0  0  0  0  0  0  0  0  0
    1.9093   44.8936   51.5042 S   0  0  0  0  0  0  0  0  0  0  0  0
    6.3484   41.8084   49.2691 C   0  0  0  0  0  0  0  0  0  0  0  0
    5.2980   42.3537   50.0176 C   0  0  0  0  0  0  0  0  0  0  0  0
    4.0188   41.7955   49.9802 C   0  0  0  0  0  0  0  0  0  0  0  0
    7.9813   43.7252   49.7229 C   0  0  0  0  0  0  0  0  0  0  0  0
    6.6578   48.4552   52.9468 N   0  0  0  0  0  0  0  0  0  0  0  0
    7.6567   42.4012   49.2702 N   0  0  0  0  0  0  0  0  0  0  0  0
    5.9062   45.4179   53.6947 C   0  0  0  0  0  0  0  0  0  0  0  0
    6.7488   44.9859   50.0213 S   0  0  0  0  0  0  0  0  0  0  0  0
    4.3449   46.1429   51.9881 C   0  0  0  0  0  0  0  0  0  0  0  0
    3.7944   44.2707   53.4265 C   0  0  0  0  0  0  0  0  0  0  0  0
    2.9120   42.4351   50.7502 C   0  0  0  0  0  0  0  0  0  0  0  0
    8.0398   45.8832   50.8554 C   0  0  0  0  0  0  0  0  0  0  0  0
    6.1141   40.6543   48.5132 C   0  0  0  0  0  0  0  0  0  0  0  0
    6.5231   47.2674   52.2065 N   0  0  0  0  0  0  0  0  0  0  0  0
    8.1059   48.7484   52.9546 C   0  0  0  0  0  0  0  0  0  0  0  0
    5.5765   46.2844   52.6432 C   0  0  0  0  0  0  0  0  0  0  0  0
    3.4595   45.1266   52.3724 C   0  0  0  0  0  0  0  0  0  0  0  0
    5.0146   44.4180   54.0893 C   0  0  0  0  0  0  0  0  0  0  0  0
    9.4060   45.4060   50.4732 C   0  0  0  0  0  0  0  0  0  0  0  0
  1 23  1  0
  2 19  1  0
  2  8  1  0
  3 11  4  0
  4 22  1  0
  4  1  1  0
  5  3  4  0
  7 27  1  0
  8 25  1  0
  9 10  4  0
 10 11  4  0
 11 19  1  0
 12  7  2  0
 12 16  1  0
 13 23  1  0
 14  9  1  0
 14 12  1  0
 15 26  4  0
 16 20  1  0
 17 25  4  0
 17 24  4  0
 18 26  4  0
 20  4  2  0
 21  5  4  0
 21  9  4  0
 22 24  1  0
 22 13  1  0
 24 15  4  0
 25 18  4  0
 27  6  1  0
 27 20  1  0
M  END
$$$$

     RDKit          3D

 18 20  0  0  0  0  0  0  0  0999 V2000
    7.4742   42.8482   48.6175 N   0  0  0  0  0  0  0  0  0  0  0  0
    3.9858   41.8702   49.6039 C   0  0  0  0  0  0  0  0  0  0  0  0
    9.3021   46.2930   52.3489 N   0  0  0  0  0  0  0  0  0  0  0  0
    5.9987   41.0714   47.8385 C   0  0  0  0  0  0  0  0  0  0  0  0
    8.5723   46.4217   53.4893 C   0  0  0  0  0  0  0  0  0  0  0  0
    9.5019   45.7005   49.9158 C   0  0  0  0  0  0  0  0  0  0  0  0
    6.2061   42.1815   48.6651 C   0  0  0  0  0  0  0  0  0  0  0  0
    7.8079   44.1367   49.1511 C   0  0  0  0  0  0  0  0  0  0  0  0
    6.5347   45.3553   49.5734 S   0  0  0  0  0  0  0  0  0  0  0  0
    5.1958   42.5685   49.5583 C   0  0  0  0  0  0  0  0  0  0  0  0
    7.1934   46.1943   53.4550 C   0  0  0  0  0  0  0  0  0  0  0  0
   10.9263   45.6336   50.1989 N   0  0  0  0  0  0  0  0  0  0  0  0
    9.0643   44.4386   49.3138 N   0  0  0  0  0  0  0  0  0  0  0  0
    6.5971   45.8618   52.2790 N   0  0  0  0  0  0  0  0  0  0  0  0
    8.7078   45.9582   51.1711 C   0  0  0  0  0  0  0  0  0  0  0  0
    4.7892   40.3714   47.8827 C   0  0  0  0  0  0  0  0  0  0  0  0
    7.3228   45.7546   51.1358 C   0  0  0  0  0  0  0  0  0  0  0  0
    3.7816   40.7724   48.7640 C   0  0  0  0  0  0  0  0  0  0  0  0
  1  7  1  0
  1  8  1  0
  3  5  4  0
  4 16  4  0
  4  7  4  0
  6 12  1  0
  6 15  1  0
  7 10  4  0
  8 13  2  0
  8  9  1  0
  9 17  1  0
 10  2  4  0
 11  5  4  0
 13  6  1  0
 14 11  4  0
 15  3  4  0
 16 18  4  0
 17 15  4  0
 17 14  4  0
 18  2  4  0
M  END
$$$$

     RDKit          3D

 28 31  0  0  0  0  0  0  0  0999 V2000
    6.8949   47.5828   52.2321 C   0  0  0  0  0  0  0  0  0  0  0  0
    6.7096   39.7048   48.6562 C   0  0  0  0  0  0  0  0  0  0  0  0
    9.0031   40.3241   47.1812 C   0  0  0  0  0  0  0  0  0  0  0  0
    0.1142   46.9544   54.2384 C   0  0  0  0  0  0  0  0  0  0  0  0
    8.5203   39.0122   47.2061 C   0  0  0  0  0  0  0  0  0  0  0  0
    2.4773   45.6898   55.2847 C   0  0  0  0  0  0  0  0  0  0  0  0
    7.1386   45.5908   50.6678 C   0  0  0  0  0  0  0  0  0  0  0  0
    8.5954   43.6053   50.0248 N   0  0  0  0  0  0  0  0  0  0  0  0
    8.2857   43.7681   48.6124 C   0  0  0  0  0  0  0  0  0  0  0  0
    2.6131   46.8822   54.3108 C   0  0  0  0  0  0  0  0  0  0  0  0
    7.1925   41.0164   48.6319 C   0  0  0  0  0  0  0  0  0  0  0  0
    3.8270   46.7262   53.4580 C   0  0  0  0  0  0  0  0  0  0  0  0
    4.8688   47.5961   53.5100 N   0  0  0  0  0  0  0  0  0  0  0  0
    8.8590   42.6657   47.8533 N   0  0  0  0  0  0  0  0  0  0  0  0
    0.0070   45.8984   55.0513 C   0  0  0  0  0  0  0  0  0  0  0  0
    8.3442   41.3313   47.8936 C   0  0  0  0  0  0  0  0  0  0  0  0
    5.7848   45.2542   51.1461 N   0  0  0  0  0  0  0  0  0  0  0  0
    7.3739   38.7026   47.9434 C   0  0  0  0  0  0  0  0  0  0  0  0
    5.1905   45.9679   52.0520 C   0  0  0  0  0  0  0  0  0  0  0  0
    3.9821   45.7090   52.5698 N   0  0  0  0  0  0  0  0  0  0  0  0
    8.3937   44.2775   52.2657 N   0  0  0  0  0  0  0  0  0  0  0  0
    1.1509   44.9309   55.1476 C   0  0  0  0  0  0  0  0  0  0  0  0
    5.7193   47.0879   52.6039 C   0  0  0  0  0  0  0  0  0  0  0  0
    7.6173   46.8872   51.1960 N   0  0  0  0  0  0  0  0  0  0  0  0
    8.0912   44.4889   51.0270 C   0  0  0  0  0  0  0  0  0  0  0  0
    9.0600   47.5824   50.5047 Cl  0  0  0  0  0  0  0  0  0  0  0  0
    1.3723   47.1404   53.4397 C   0  0  0  0  0  0  0  0  0  0  0  0
    7.5232   49.0586   52.9584 Cl  0  0  0  0  0  0  0  0  0  0  0  0
  1 28  1  0
  3  5  4  0
  3 16  4  0
  4 15  2  0
  5 18  4  0
  6 22  1  0
  7 25  1  0
  7 24  1  0
  8 25  1  0
  9  8  1  0
 10 12  1  0
 10  6  1  0
 11  2  4  0
 12 13  4  0
 14 16  1  0
 14  9  1  0
 15 22  1  0
 16 11  4  0
 17  7  1  0
 17 19  2  0
 18  2  4  0
 19 23  4  0
 20 19  4  0
 20 12  4  0
 23  1  2  0
 23 13  4  0
 24  1  1  0
 24 26  1  0
 25 21  2  0
 27  4  1  0
 27 10  1  0
M  END
$$$$

     RDKit          3D

 36 39  0  0  0  0  0  0  0  0999 V2000
    4.5160   43.2460   57.5692 O   0  0  0  0  0  0  0  0  0  0  0  0
    2.2574   42.7213   52.6994 N   0  0  0  0  0  0  0  0  0  0  0  0
    3.6605   44.7348   52.5344 C   0  0  0  0  0  0  0  0  0  0  0  0
    7.3672   45.8284   54.0840 C   0  0  0  0  0  0  0  0  0  0  0  0
    5.1612   43.4026   45.4716 C   0  0  0  0  0  0  0  0  0  0  0  0
    7.5558   45.3393   47.5797 N   0  0  0  0  0  0  0  0  0  0  0  0
    4.0273   42.4847   51.4961 C   0  0  0  0  0  0  0  0  0  0  0  0
    7.5024   46.4084   55.4090 N   0  0  0  0  0  0  0  0  0  0  0  0
    7.8624   45.8339   48.8882 C   0  0  0  0  0  0  0  0  0  0  0  0
    2.6325   45.6337   53.1652 C   0  0  0  0  0  0  0  0  0  0  0  0
    7.0636   45.8122   51.2134 C   0  0  0  0  0  0  0  0  0  0  0  0
    8.5795   46.2059   53.2249 C   0  0  0  0  0  0  0  0  0  0  0  0
    4.2720   42.9101   46.4312 C   0  0  0  0  0  0  0  0  0  0  0  0
    9.7828   45.4364   53.7288 C   0  0  0  0  0  0  0  0  0  0  0  0
    1.9952   46.4475   52.4443 O   0  0  0  0  0  0  0  0  0  0  0  0
    6.8693   45.8000   49.9245 N   0  0  0  0  0  0  0  0  0  0  0  0
    3.0106   43.5682   51.7825 C   0  0  0  0  0  0  0  0  0  0  0  0
    5.5358   44.0262   48.1698 C   0  0  0  0  0  0  0  0  0  0  0  0
    9.6745   43.9235   50.6596 N   0  0  0  0  0  0  0  0  0  0  0  0
    1.3590   46.4205   55.1754 C   0  0  0  0  0  0  0  0  0  0  0  0
    3.2112   41.6497   52.4530 C   0  0  0  0  0  0  0  0  0  0  0  0
    6.2365   44.2094   45.8624 C   0  0  0  0  0  0  0  0  0  0  0  0
    5.0341   43.5733   56.3165 C   0  0  0  0  0  0  0  0  0  0  0  0
    6.4295   44.5306   47.2124 C   0  0  0  0  0  0  0  0  0  0  0  0
    2.3362   45.5323   54.5677 N   0  0  0  0  0  0  0  0  0  0  0  0
    8.4558   45.7051   51.7971 C   0  0  0  0  0  0  0  0  0  0  0  0
    4.2102   45.8859   50.5121 O   0  0  0  0  0  0  0  0  0  0  0  0
    8.9643   46.4884   49.0608 N   0  0  0  0  0  0  0  0  0  0  0  0
    6.0869   46.3403   53.4497 C   0  0  0  0  0  0  0  0  0  0  0  0
    2.9006   44.4735   55.3921 C   0  0  0  0  0  0  0  0  0  0  0  0
    8.9472   44.2705   51.8672 C   0  0  0  0  0  0  0  0  0  0  0  0
    5.9283   45.8104   52.1021 N   0  0  0  0  0  0  0  0  0  0  0  0
    4.4593   43.2240   47.7814 C   0  0  0  0  0  0  0  0  0  0  0  0
    4.3352   44.8035   55.7650 C   0  0  0  0  0  0  0  0  0  0  0  0
    9.8364   44.1584   53.0197 N   0  0  0  0  0  0  0  0  0  0  0  0
    4.5993   45.5051   51.6488 C   0  0  0  0  0  0  0  0  0  0  0  0
  1 23  1  0
  3 36  1  0
  3 10  1  0
  4  8  1  0
  5 13  4  0
  6 24  1  0
  6  9  1  0
  7 17  1  0
  7 21  1  0
  9 28  2  0
  9 16  1  0
 10 25  1  0
 11 32  1  0
 12 14  1  0
 12  4  1  0
 13 33  4  0
 15 10  2  0
 16 11  2  3
 17  3  1  0
 17  2  1  0
 21  2  1  0
 22  5  4  0
 22 24  4  0
 23 34  1  0
 24 18  4  0
 25 20  1  0
 25 30  1  0
 26 11  1  0
 26 12  1  0
 27 36  2  0
 29  4  1  0
 30 34  1  0
 31 19  1  0
 31 26  1  0
 31 35  1  0
 32 29  1  0
 33 18  4  0
 35 14  1  0
 36 32  1  0
M  END
$$$$

     RDKit          3D

 27 29  0  0  0  0  0  0  0  0999 V2000
    3.6108   41.6045   47.4772 C   0  0  0  0  0  0  0  0  0  0  0  0
    5.1114   44.1749   53.5577 C   0  0  0  0  0  0  0  0  0  0  0  0
    5.4571   46.4152   54.3097 N   0  0  0  0  0  0  0  0  0  0  0  0
    5.3594   43.0199   48.3922 C   0  0  0  0  0  0  0  0  0  0  0  0
    8.2939   46.3069   51.0964 C   0  0  0  0  0  0  0  0  0  0  0  0
    4.9439   41.7975   47.8521 C   0  0  0  0  0  0  0  0  0  0  0  0
    6.4479   44.7156   53.0630 C   0  0  0  0  0  0  0  0  0  0  0  0
   10.3560   44.9641   51.1922 N   0  0  0  0  0  0  0  0  0  0  0  0
    3.0836   43.8527   48.1988 C   0  0  0  0  0  0  0  0  0  0  0  0
    4.2707   43.7667   52.3664 C   0  0  0  0  0  0  0  0  0  0  0  0
    8.5947   46.8670   52.4325 C   0  0  0  0  0  0  0  0  0  0  0  0
    4.4916   45.3344   54.3538 C   0  0  0  0  0  0  0  0  0  0  0  0
    7.5827   46.9950   53.4397 N   0  0  0  0  0  0  0  0  0  0  0  0
    4.4167   44.0429   48.5727 C   0  0  0  0  0  0  0  0  0  0  0  0
    6.7614   46.0049   48.8565 S   0  0  0  0  0  0  0  0  0  0  0  0
    9.2644   45.4138   50.3434 C   0  0  0  0  0  0  0  0  0  0  0  0
    4.6477   42.8558   51.6451 O   0  0  0  0  0  0  0  0  0  0  0  0
    8.5488   44.2453   49.8248 N   0  0  0  0  0  0  0  0  0  0  0  0
    7.1105   46.5678   50.5287 C   0  0  0  0  0  0  0  0  0  0  0  0
    6.7264   43.1600   48.8025 N   0  0  0  0  0  0  0  0  0  0  0  0
    2.7496   44.5661   51.9770 Cl  0  0  0  0  0  0  0  0  0  0  0  0
    5.3776   42.9842   54.4830 C   0  0  0  0  0  0  0  0  0  0  0  0
    4.1004   42.4067   55.0775 C   0  0  0  0  0  0  0  0  0  0  0  0
    2.6807   42.6331   47.6492 C   0  0  0  0  0  0  0  0  0  0  0  0
    9.7529   47.2957   52.6776 O   0  0  0  0  0  0  0  0  0  0  0  0
    7.4150   44.3546   49.1977 C   0  0  0  0  0  0  0  0  0  0  0  0
    6.4803   46.0968   53.6026 C   0  0  0  0  0  0  0  0  0  0  0  0
  1  6  4  0
  1 24  4  0
  2  7  1  0
  2 12  1  0
  2 22  1  0
  3 27  2  0
  3 12  1  0
  4 14  4  0
  5 11  1  0
  6  4  4  0
 10  2  1  0
 11 25  2  0
 11 13  1  0
 13 27  1  0
 14  9  4  0
 15 19  1  0
 16  8  1  0
 16  5  1  0
 17 10  2  0
 18 16  1  0
 19  5  2  0
 20  4  1  0
 20 26  1  0
 21 10  1  0
 22 23  1  0
 24  9  4  0
 26 18  2  0
 26 15  1  0
 27  7  1  0
M  END
$$$$

     RDKit          3D

 18 21  0  0  0  0  0  0  0  0999 V2000
    8.8577   44.8172   49.0708 N   0  0  0  0  0  0  0  0  0  0  0  0
    8.7649   45.6239   52.7363 C   0  0  0  0  0  0  0  0  0  0  0  0
    3.9375   41.7381   49.3743 C   0  0  0  0  0  0  0  0  0  0  0  0
    5.9423   42.5333   48.2523 C   0  0  0  0  0  0  0  0  0  0  0  0
    5.1098   42.4995   49.3808 C   0  0  0  0  0  0  0  0  0  0  0  0
    8.5066   45.1382   51.3464 C   0  0  0  0  0  0  0  0  0  0  0  0
    7.7566   44.0606   49.2724 C   0  0  0  0  0  0  0  0  0  0  0  0
    8.0399   46.8067   52.8049 N   0  0  0  0  0  0  0  0  0  0  0  0
    4.4079   41.0391   47.1065 C   0  0  0  0  0  0  0  0  0  0  0  0
    7.2693   44.0926   50.8894 S   0  0  0  0  0  0  0  0  0  0  0  0
    7.1469   43.3111   48.2118 N   0  0  0  0  0  0  0  0  0  0  0  0
    9.4297   46.4551   53.4800 C   0  0  0  0  0  0  0  0  0  0  0  0
    5.5800   41.8014   47.1156 C   0  0  0  0  0  0  0  0  0  0  0  0
    9.2742   45.4139   50.2187 C   0  0  0  0  0  0  0  0  0  0  0  0
   10.5517   46.8409   53.9925 N   0  0  0  0  0  0  0  0  0  0  0  0
    7.9444   45.6060   53.6998 N   0  0  0  0  0  0  0  0  0  0  0  0
    3.5868   41.0069   48.2366 C   0  0  0  0  0  0  0  0  0  0  0  0
   10.4238   46.2532   50.2486 N   0  0  0  0  0  0  0  0  0  0  0  0
  1 14  4  0
  2  6  1  0
  2 16  1  0
  2 12  1  0
  2  8  1  0
  4  5  4  0
  5  3  4  0
  7  1  4  0
  7 10  4  0
  9 13  4  0
  9 17  4  0
 10  6  4  0
 11  4  1  0
 11  7  1  0
 12  8  1  0
 12 15  2  0
 13  4  4  0
 14 18  1  0
 14  6  4  0
 16  8  1  0
 17  3  4  0
M  END
$$$$

     RDKit          3D

 27 27  0  0  0  0  0  0  0  0999 V2000
    8.3668   45.0903   52.4262 C   0  0  0  0  0  0  0  0  0  0  0  0
    7.7977   43.6541   49.4304 N   0  0  0  0  0  0  0  0  0  0  0  0
    8.9669   43.7489   52.1261 C   0  0  0  0  0  0  0  0  0  0  0  0
    9.1814   43.7966   49.5884 N   0  0  0  0  0  0  0  0  0  0  0  0
    6.3089   42.9577   52.3856 N   0  0  0  0  0  0  0  0  0  0  0  0
    3.4675   44.7196   54.4424 C   0  0  0  0  0  0  0  0  0  0  0  0
    9.7927   43.7916   50.8791 C   0  0  0  0  0  0  0  0  0  0  0  0
    3.6338   43.1416   48.8957 C   0  0  0  0  0  0  0  0  0  0  0  0
    4.5146   44.5378   52.4793 C   0  0  0  0  0  0  0  0  0  0  0  0
    6.9687   45.2865   52.5587 C   0  0  0  0  0  0  0  0  0  0  0  0
    5.3586   43.7109   46.7685 C   0  0  0  0  0  0  0  0  0  0  0  0
    5.0059   43.2805   49.1250 C   0  0  0  0  0  0  0  0  0  0  0  0
    3.5325   43.9038   52.1306 C   0  0  0  0  0  0  0  0  0  0  0  0
    3.5600   43.6149   52.4391 C   0  0  0  0  0  0  0  0  0  0  0  0
    7.2826   43.7159   48.2700 N   0  0  0  0  0  0  0  0  0  0  0  0
    6.5306   46.5921   52.8222 C   0  0  0  0  0  0  0  0  0  0  0  0
    7.4147   47.6120   52.9587 N   0  0  0  0  0  0  0  0  0  0  0  0
    3.1236   43.2895   47.6031 C   0  0  0  0  0  0  0  0  0  0  0  0
   11.0742   43.9226   50.9740 N   0  0  0  0  0  0  0  0  0  0  0  0
    9.5549   48.3503   52.9817 O   0  0  0  0  0  0  0  0  0  0  0  0
    8.7473   47.3942   52.8471 C   0  0  0  0  0  0  0  0  0  0  0  0
    9.2105   46.1470   52.5860 N   0  0  0  0  0  0  0  0  0  0  0  0
    5.9515   44.2008   52.4509 C   0  0  0  0  0  0  0  0  0  0  0  0
    3.9856   43.5742   46.5395 C   0  0  0  0  0  0  0  0  0  0  0  0
    5.8755   43.5672   48.0607 C   0  0  0  0  0  0  0  0  0  0  0  0
    3.6972   45.1146   53.0249 C   0  0  0  0  0  0  0  0  0  0  0  0
    3.5448   45.5970   55.3721 N   0  0  0  0  0  0  0  0  0  0  0  0
  1 22  4  0
  1 10  4  0
  2  4  1  0
  3  1  1  0
  4  7  1  0
  5 23  2  0
  6 27  2  0
  7 19  2  0
  7  3  1  0
  8 12  4  0
 10 16  4  0
 11 25  4  0
 13 26  1  0
 14  9  2  0
 15 25  1  0
 15  2  2  3
 16 17  4  0
 18  8  4  0
 21 20  2  0
 21 17  4  0
 22 21  4  0
 23  9  1  0
 23 10  1  0
 24 11  4  0
 24 18  4  0
 25 12  4  0
 26  6  1  0
M  END
$$$$

     RDKit          3D

 36 40  0  0  0  0  0  0  0  0999 V2000
    6.4205   47.0313   53.7338 C   0  0  0  0  0  0  0  0  0  0  0  0
    6.4858   42.0000   51.2046 N   0  0  0  0  0  0  0  0  0  0  0  0
    5.6983   48.2341   53.1241 C   0  0  0  0  0  0  0  0  0  0  0  0
    0.0729   43.8206   50.1696 C   0  0  0  0  0  0  0  0  0  0  0  0
    9.6501   43.7422   51.8057 C   0  0  0  0  0  0  0  0  0  0  0  0
    7.7407   47.4139   54.2085 N   0  0  0  0  0  0  0  0  0  0  0  0
    3.3908   42.1294   53.3347 C   0  0  0  0  0  0  0  0  0  0  0  0
    0.2463   43.7129   53.0335 O   0  0  0  0  0  0  0  0  0  0  0  0
    0.8177   44.6097   52.3586 C   0  0  0  0  0  0  0  0  0  0  0  0
    3.7100   45.2995   51.2495 C   0  0  0  0  0  0  0  0  0  0  0  0
    5.1528   41.7955   51.6933 C   0  0  0  0  0  0  0  0  0  0  0  0
    2.5341   41.3197   52.5852 C   0  0  0  0  0  0  0  0  0  0  0  0
    0.4171   44.8738   51.0522 O   0  0  0  0  0  0  0  0  0  0  0  0
    4.2875   40.9838   50.9510 C   0  0  0  0  0  0  0  0  0  0  0  0
    7.3546   43.8363   53.2108 S   0  0  0  0  0  0  0  0  0  0  0  0
    8.5152   45.8833   51.9223 N   0  0  0  0  0  0  0  0  0  0  0  0
    8.8530   47.2884   52.8823 S   0  0  0  0  0  0  0  0  0  0  0  0
    7.5401   42.7882   51.7757 C   0  0  0  0  0  0  0  0  0  0  0  0
    2.6525   46.0762   49.1446 O   0  0  0  0  0  0  0  0  0  0  0  0
    8.6864   42.8466   51.1914 N   0  0  0  0  0  0  0  0  0  0  0  0
    2.7656   46.1747   52.1037 C   0  0  0  0  0  0  0  0  0  0  0  0
    5.0638   45.7193   51.2679 O   0  0  0  0  0  0  0  0  0  0  0  0
    3.5970   47.0706   53.0143 C   0  0  0  0  0  0  0  0  0  0  0  0
    8.8721   44.7032   52.6946 C   0  0  0  0  0  0  0  0  0  0  0  0
   10.5760   42.9735   52.6191 N   0  0  0  0  0  0  0  0  0  0  0  0
    3.8856   45.5735   48.6802 C   0  0  0  0  0  0  0  0  0  0  0  0
    4.6949   42.3647   52.8904 C   0  0  0  0  0  0  0  0  0  0  0  0
   10.2560   47.2139   53.4175 O   0  0  0  0  0  0  0  0  0  0  0  0
    8.7270   48.5104   52.0169 O   0  0  0  0  0  0  0  0  0  0  0  0
    4.5867   47.8448   52.2510 N   0  0  0  0  0  0  0  0  0  0  0  0
    3.1861   44.9717   49.8372 C   0  0  0  0  0  0  0  0  0  0  0  0
    2.9826   40.7461   51.3931 C   0  0  0  0  0  0  0  0  0  0  0  0
    5.1100   47.1181   51.0803 C   0  0  0  0  0  0  0  0  0  0  0  0
    1.0795   43.7613   49.0294 C   0  0  0  0  0  0  0  0  0  0  0  0
    2.5140   43.6266   49.5421 C   0  0  0  0  0  0  0  0  0  0  0  0
    1.9067   45.3338   52.9237 N   0  0  0  0  0  0  0  0  0  0  0  0
  1  3  1  0
  2 11  1  0
  2 18  1  0
  4 13  1  0
  5 25  1  0
  5 24  1  0
  6  1  1  0
  9  8  2  0
 10 22  1  0
 10 21  1  0
 11 27  4  0
 12  7  4  0
 13  9  1  0
 14 32  4  0
 14 11  4  0
 15 24  1  0
 16 17  1  0
 17 28  2  0
 17  6  1  0
 18 20  2  0
 18 15  1  0
 19 26  1  0
 19 31  1  0
 20  5  1  0
 21 23  1  0
 22 33  1  0
 24 16  1  0
 27  7  4  0
 29 17  2  0
 30  3  1  0
 30 23  1  0
 31 26  1  0
 31 10  1  0
 32 12  4  0
 33 30  1  0
 34 35  1  0
 34  4  1  0
 35 31  1  0
 36 21  1  0
 36  9  1  0
M  END
$$$$

     RDKit          3D

 36 38  0  0  0  0  0  0  0  0999 V2000
    1.6216   44.2054   55.6064 F   0  0  0  0  0  0  0  0  0  0  0  0
    1.1037   44.7858   53.3536 C   0  0  0  0  0  0  0  0  0  0  0  0
    3.4655   46.8206   53.9301 C   0  0  0  0  0  0  0  0  0  0  0  0
    4.5555   40.8719   48.1044 C   0  0  0  0  0  0  0  0  0  0  0  0
    2.4941   44.8045   52.9203 N   0  0  0  0  0  0  0  0  0  0  0  0
    6.4049   45.3319   49.6069 N   0  0  0  0  0  0  0  0  0  0  0  0
    6.4575   42.3026   48.5779 C   0  0  0  0  0  0  0  0  0  0  0  0
    4.6468   41.5580   51.8247 C   0  0  0  0  0  0  0  0  0  0  0  0
    4.5204   45.9562   55.8370 C   0  0  0  0  0  0  0  0  0  0  0  0
   -1.2358   44.8032   52.4849 C   0  0  0  0  0  0  0  0  0  0  0  0
    6.1727   46.1768   50.6384 C   0  0  0  0  0  0  0  0  0  0  0  0
    5.0116   41.5535   50.3825 C   0  0  0  0  0  0  0  0  0  0  0  0
    7.6799   44.9082   49.7714 C   0  0  0  0  0  0  0  0  0  0  0  0
    0.9222   43.7851   54.4904 C   0  0  0  0  0  0  0  0  0  0  0  0
    9.4950   45.3456   51.5938 C   0  0  0  0  0  0  0  0  0  0  0  0
    2.8612   46.1925   52.6768 C   0  0  0  0  0  0  0  0  0  0  0  0
    7.4522   47.0526   52.6111 C   0  0  0  0  0  0  0  0  0  0  0  0
    8.3538   43.9952   48.8284 C   0  0  0  0  0  0  0  0  0  0  0  0
    8.2045   45.5061   50.9044 C   0  0  0  0  0  0  0  0  0  0  0  0
    6.5325   47.7921   53.0538 O   0  0  0  0  0  0  0  0  0  0  0  0
    8.6411   46.6958   54.7693 C   0  0  0  0  0  0  0  0  0  0  0  0
    1.3603   42.5271   54.1136 F   0  0  0  0  0  0  0  0  0  0  0  0
    5.6738   41.5877   47.6658 C   0  0  0  0  0  0  0  0  0  0  0  0
    4.2213   40.8592   49.4616 C   0  0  0  0  0  0  0  0  0  0  0  0
    6.1263   42.2725   49.9414 C   0  0  0  0  0  0  0  0  0  0  0  0
    4.6341   46.0773   54.3763 N   0  0  0  0  0  0  0  0  0  0  0  0
    8.8010   47.0048   53.2926 C   0  0  0  0  0  0  0  0  0  0  0  0
    9.7209   46.0218   52.6859 N   0  0  0  0  0  0  0  0  0  0  0  0
    3.8609   42.6749   52.1082 O   0  0  0  0  0  0  0  0  0  0  0  0
    7.6115   43.0067   48.1020 N   0  0  0  0  0  0  0  0  0  0  0  0
    5.3869   46.9759   55.2632 C   0  0  0  0  0  0  0  0  0  0  0  0
   10.4616   44.4039   51.1434 N   0  0  0  0  0  0  0  0  0  0  0  0
    0.2037   44.4369   52.1770 C   0  0  0  0  0  0  0  0  0  0  0  0
    9.5588   44.2620   48.4486 N   0  0  0  0  0  0  0  0  0  0  0  0
    7.2589   46.2863   51.4245 N   0  0  0  0  0  0  0  0  0  0  0  0
    3.8321   46.2725   51.5135 C   0  0  0  0  0  0  0  0  0  0  0  0
  2 33  1  0
  2  5  1  0
  2 14  1  0
  3 26  1  0
  4 24  4  0
  6 11  4  0
  7 25  4  0
  8 29  1  0
 10 33  1  0
 11 35  4  0
 12 25  4  0
 12  8  1  0
 13  6  4  0
 13 19  4  0
 14  1  1  0
 15 28  2  0
 16 36  1  0
 16  5  1  0
 16  3  1  0
 17 20  2  0
 17 27  1  0
 18 34  2  0
 18 13  1  0
 19 15  1  0
 19 35  4  0
 22 14  1  0
 23  4  4  0
 23  7  4  0
 24 12  4  0
 26 31  1  0
 26  9  1  0
 27 21  1  0
 28 27  1  0
 30  7  1  0
 30 18  1  0
 31  9  1  0
 32 15  1  0
 35 17  1  0
M  END
$$$$

     RDKit          3D

 27 30  0  0  0  0  0  0  0  0999 V2000
    2.7157   45.8873   51.9153 C   0  0  0  0  0  0  0  0  0  0  0  0
    6.9485   45.2085   51.5649 N   0  0  0  0  0  0  0  0  0  0  0  0
    4.0182   45.6517   51.7725 C   0  0  0  0  0  0  0  0  0  0  0  0
    2.6249   44.1069   54.3890 C   0  0  0  0  0  0  0  0  0  0  0  0
    4.4913   40.9581   48.2570 C   0  0  0  0  0  0  0  0  0  0  0  0
    5.4937   40.8146   46.0597 C   0  0  0  0  0  0  0  0  0  0  0  0
    2.9041   45.6075   54.3944 C   0  0  0  0  0  0  0  0  0  0  0  0
    8.4088   46.3150   52.8161 C   0  0  0  0  0  0  0  0  0  0  0  0
    4.4141   45.9175   54.2610 C   0  0  0  0  0  0  0  0  0  0  0  0
    9.2988   45.1033   50.7719 C   0  0  0  0  0  0  0  0  0  0  0  0
    5.5330   41.7908   48.6759 C   0  0  0  0  0  0  0  0  0  0  0  0
   10.6498   45.5097   50.9654 N   0  0  0  0  0  0  0  0  0  0  0  0
    7.1987   46.4721   53.4049 N   0  0  0  0  0  0  0  0  0  0  0  0
    6.4519   44.2142   50.3316 S   0  0  0  0  0  0  0  0  0  0  0  0
    2.1457   46.2703   53.2466 C   0  0  0  0  0  0  0  0  0  0  0  0
    7.7829   43.7856   49.3652 C   0  0  0  0  0  0  0  0  0  0  0  0
    4.9217   45.6907   52.8910 N   0  0  0  0  0  0  0  0  0  0  0  0
    7.6600   42.9760   48.1867 N   0  0  0  0  0  0  0  0  0  0  0  0
    9.4705   46.8159   53.2714 O   0  0  0  0  0  0  0  0  0  0  0  0
    5.2369   45.1506   55.2980 C   0  0  0  0  0  0  0  0  0  0  0  0
    8.3082   45.5395   51.6787 C   0  0  0  0  0  0  0  0  0  0  0  0
    2.2894   46.2906   55.9211 Cl  0  0  0  0  0  0  0  0  0  0  0  0
    6.5346   41.6479   46.4808 C   0  0  0  0  0  0  0  0  0  0  0  0
    9.0061   44.2920   49.7021 N   0  0  0  0  0  0  0  0  0  0  0  0
    6.3323   45.7849   52.6170 C   0  0  0  0  0  0  0  0  0  0  0  0
    6.5567   42.1511   47.7866 C   0  0  0  0  0  0  0  0  0  0  0  0
    4.4707   40.4714   46.9475 C   0  0  0  0  0  0  0  0  0  0  0  0
  1 15  1  0
  2 21  1  0
  2 25  4  0
  3  1  2  0
  3 17  1  0
  6 27  4  0
  7  4  1  0
  7  9  1  0
  7 22  1  0
  8 19  2  0
  8 13  4  0
  9 20  1  0
 10 12  1  0
 10 21  4  0
 11  5  4  0
 14  2  4  0
 15  7  1  0
 16 24  4  0
 16 14  4  0
 17  9  1  0
 18 26  1  0
 18 16  1  0
 21  8  4  0
 23  6  4  0
 23 26  4  0
 24 10  4  0
 25 17  1  0
 25 13  4  0
 26 11  4  0
 27  5  4  0
M  END
$$$$

     RDKit          3D

 18 19  0  0  0  0  0  0  0  0999 V2000
    9.1385   44.2353   49.6163 N   0  0  0  0  0  0  0  0  0  0  0  0
    3.8686   40.2948   49.0938 C   0  0  0  0  0  0  0  0  0  0  0  0
    4.7789   40.1311   48.0463 C   0  0  0  0  0  0  0  0  0  0  0  0
    6.9851   47.5686   51.4197 N   0  0  0  0  0  0  0  0  0  0  0  0
    9.6580   45.3515   50.3513 C   0  0  0  0  0  0  0  0  0  0  0  0
    5.9500   40.8942   48.0119 C   0  0  0  0  0  0  0  0  0  0  0  0
    5.3000   41.9847   50.0701 C   0  0  0  0  0  0  0  0  0  0  0  0
   10.2844   47.6852   52.3310 O   0  0  0  0  0  0  0  0  0  0  0  0
    7.4118   43.5932   51.0965 N   0  0  0  0  0  0  0  0  0  0  0  0
    7.9309   43.5256   49.9130 C   0  0  0  0  0  0  0  0  0  0  0  0
    8.7705   46.3631   50.9594 C   0  0  0  0  0  0  0  0  0  0  0  0
    7.9151   48.1601   52.1020 C   0  0  0  0  0  0  0  0  0  0  0  0
    6.2216   41.8222   49.0237 C   0  0  0  0  0  0  0  0  0  0  0  0
   10.9331   45.5576   50.3432 N   0  0  0  0  0  0  0  0  0  0  0  0
    9.1454   47.4350   51.8571 C   0  0  0  0  0  0  0  0  0  0  0  0
    4.1288   41.2225   50.1058 C   0  0  0  0  0  0  0  0  0  0  0  0
    7.5073   46.4714   50.7125 N   0  0  0  0  0  0  0  0  0  0  0  0
    7.4280   42.5950   48.9445 N   0  0  0  0  0  0  0  0  0  0  0  0
  1  5  1  0
  2 16  4  0
  3  6  4  0
  3  2  4  0
  4 12  2  0
  5 14  2  0
  5 11  1  0
  6 13  4  0
 10  1  1  0
 10  9  2  0
 11 17  2  0
 11 15  1  0
 13  7  4  0
 15 12  1  0
 15  8  2  0
 16  7  4  0
 17  4  1  0
 18 13  1  0
 18 10  1  0
M  END
$$$$

     RDKit          3D

 23 25  0  0  0  0  0  0  0  0999 V2000
    5.3388   38.5077   50.0186 C   0  0  0  0  0  0  0  0  0  0  0  0
    8.4389   44.0146   49.1724 N   0  0  0  0  0  0  0  0  0  0  0  0
    7.3926   47.2830   53.4063 C   0  0  0  0  0  0  0  0  0  0  0  0
    6.0750   38.5418   48.8305 C   0  0  0  0  0  0  0  0  0  0  0  0
    4.8049   47.9297   50.7797 C   0  0  0  0  0  0  0  0  0  0  0  0
    6.0784   40.7534   50.5408 C   0  0  0  0  0  0  0  0  0  0  0  0
    9.4071   45.7288   52.3490 S   0  0  0  0  0  0  0  0  0  0  0  0
    7.4193   46.9461   50.9904 N   0  0  0  0  0  0  0  0  0  0  0  0
    3.3351   48.5733   52.5407 N   0  0  0  0  0  0  0  0  0  0  0  0
    3.3844   48.3134   51.1142 C   0  0  0  0  0  0  0  0  0  0  0  0
    8.1032   45.6603   51.0739 C   0  0  0  0  0  0  0  0  0  0  0  0
    6.8179   40.7909   49.3497 C   0  0  0  0  0  0  0  0  0  0  0  0
    9.4786   46.1199   49.1362 N   0  0  0  0  0  0  0  0  0  0  0  0
    7.6134   43.0815   49.8123 N   0  0  0  0  0  0  0  0  0  0  0  0
    5.3405   39.6135   50.8738 C   0  0  0  0  0  0  0  0  0  0  0  0
    8.2156   46.0358   53.6940 C   0  0  0  0  0  0  0  0  0  0  0  0
    2.3474   47.6701   53.1036 C   0  0  0  0  0  0  0  0  0  0  0  0
    7.5773   41.9461   48.9925 N   0  0  0  0  0  0  0  0  0  0  0  0
    5.6047   48.1832   51.9677 N   0  0  0  0  0  0  0  0  0  0  0  0
    6.8130   39.6818   48.4973 C   0  0  0  0  0  0  0  0  0  0  0  0
    8.6908   45.2964   49.7461 C   0  0  0  0  0  0  0  0  0  0  0  0
    4.6306   48.1555   53.0539 C   0  0  0  0  0  0  0  0  0  0  0  0
    6.5385   47.0672   52.1526 C   0  0  0  0  0  0  0  0  0  0  0  0
  1 15  4  0
  2 21  1  0
  3 16  1  0
  4  1  4  0
  5 10  1  0
  6 15  4  0
  7 16  1  0
  8 11  1  0
  8 23  1  0
  9 17  1  0
 10  9  1  0
 11 21  1  0
 11  7  1  0
 12  6  4  0
 14  2  1  0
 18 12  1  0
 18 14  1  0
 19  5  1  0
 19 22  1  0
 20  4  4  0
 20 12  4  0
 21 13  2  0
 22  9  1  0
 23 19  1  0
 23  3  1  0
M  END
$$$$

     RDKit          3D

 27 30  0  0  0  0  0  0  0  0999 V2000
    8.1084   46.5060   53.7377 C   0  0  0  0  0  0  0  0  0  0  0  0
    5.2621   43.5558   53.7576 Cl  0  0  0  0  0  0  0  0  0  0  0  0
    6.4281   41.1328   48.0057 C   0  0  0  0  0  0  0  0  0  0  0  0
    1.8372   46.5500   53.5426 C   0  0  0  0  0  0  0  0  0  0  0  0
    8.7726   45.9818   51.5307 C   0  0  0  0  0  0  0  0  0  0  0  0
    7.9276   42.8347   48.9029 N   0  0  0  0  0  0  0  0  0  0  0  0
   11.1324   45.4584   51.1524 N   0  0  0  0  0  0  0  0  0  0  0  0
    9.4543   44.3418   49.8798 N   0  0  0  0  0  0  0  0  0  0  0  0
    3.9911   45.7937   52.7105 C   0  0  0  0  0  0  0  0  0  0  0  0
    5.1732   40.5205   47.9297 C   0  0  0  0  0  0  0  0  0  0  0  0
    8.2564   44.1319   49.4148 C   0  0  0  0  0  0  0  0  0  0  0  0
    7.4303   45.8796   51.1467 C   0  0  0  0  0  0  0  0  0  0  0  0
    4.2876   42.1402   49.4948 C   0  0  0  0  0  0  0  0  0  0  0  0
    5.0582   45.9251   51.7630 N   0  0  0  0  0  0  0  0  0  0  0  0
    2.8901   46.6642   52.6310 C   0  0  0  0  0  0  0  0  0  0  0  0
    1.8603   45.5569   54.5224 C   0  0  0  0  0  0  0  0  0  0  0  0
    2.8193   47.9275   51.4135 Cl  0  0  0  0  0  0  0  0  0  0  0  0
    6.8008   46.3754   53.3888 N   0  0  0  0  0  0  0  0  0  0  0  0
    5.5424   42.7509   49.5696 C   0  0  0  0  0  0  0  0  0  0  0  0
    6.6180   42.2593   48.8136 C   0  0  0  0  0  0  0  0  0  0  0  0
    6.4399   46.0485   52.1172 C   0  0  0  0  0  0  0  0  0  0  0  0
    2.9333   44.6669   54.5878 C   0  0  0  0  0  0  0  0  0  0  0  0
    7.0444   45.4762   49.4364 S   0  0  0  0  0  0  0  0  0  0  0  0
    9.8305   45.6042   50.5219 C   0  0  0  0  0  0  0  0  0  0  0  0
    4.1024   41.0258   48.6724 C   0  0  0  0  0  0  0  0  0  0  0  0
    9.0855   46.2986   52.8160 N   0  0  0  0  0  0  0  0  0  0  0  0
    3.9965   44.7733   53.6865 C   0  0  0  0  0  0  0  0  0  0  0  0
  1 18  4  0
  3 10  4  0
  3 20  4  0
  4 16  4  0
  5 12  4  0
  5 26  4  0
  6 20  1  0
  6 11  1  0
  8 24  1  0
  9 27  4  0
 10 25  4  0
 11  8  2  0
 11 23  1  0
 12 21  4  0
 13 19  4  0
 14  9  1  0
 15  4  4  0
 15  9  4  0
 16 22  4  0
 17 15  1  0
 20 19  4  0
 21 14  1  0
 21 18  4  0
 23 12  1  0
 24  7  1  0
 24  5  1  0
 25 13  4  0
 26  1  4  0
 27 22  4  0
 27  2  1  0
M  END
$$$$

     RDKit          3D

 36 40  0  0  0  0  0  0  0  0999 V2000
    6.4680   47.1504   52.8734 C   0  0  0  0  0  0  0  0  0  0  0  0
    5.8274   46.6703   54.1187 N   0  0  0  0  0  0  0  0  0  0  0  0
    8.4922   45.9459   51.1044 C   0  0  0  0  0  0  0  0  0  0  0  0
    8.8527   46.8220   52.1841 N   0  0  0  0  0  0  0  0  0  0  0  0
    8.6088   48.0730   54.0047 C   0  0  0  0  0  0  0  0  0  0  0  0
    3.5061   40.5899   49.0894 C   0  0  0  0  0  0  0  0  0  0  0  0
    5.0167   42.3477   49.8049 C   0  0  0  0  0  0  0  0  0  0  0  0
    4.5480   40.0133   48.3490 C   0  0  0  0  0  0  0  0  0  0  0  0
    6.1299   46.2094   51.7224 C   0  0  0  0  0  0  0  0  0  0  0  0
    3.7499   41.7595   49.8200 C   0  0  0  0  0  0  0  0  0  0  0  0
    7.0487   45.7708   50.8397 C   0  0  0  0  0  0  0  0  0  0  0  0
    7.3752   42.3381   49.0524 N   0  0  0  0  0  0  0  0  0  0  0  0
   10.0680   47.1888   52.5471 N   0  0  0  0  0  0  0  0  0  0  0  0
    1.8192   43.4755   53.3327 C   0  0  0  0  0  0  0  0  0  0  0  0
    9.3802   45.1003   50.5318 C   0  0  0  0  0  0  0  0  0  0  0  0
    1.5938   46.3980   51.3652 Cl  0  0  0  0  0  0  0  0  0  0  0  0
    9.9505   47.9562   53.6521 C   0  0  0  0  0  0  0  0  0  0  0  0
    6.5685   45.0199   49.2849 S   0  0  0  0  0  0  0  0  0  0  0  0
    1.8451   41.9736   53.1419 C   0  0  0  0  0  0  0  0  0  0  0  0
    8.9339   43.8854   49.8992 N   0  0  0  0  0  0  0  0  0  0  0  0
    4.7341   45.7632   51.6373 C   0  0  0  0  0  0  0  0  0  0  0  0
    4.3603   46.5757   53.9660 C   0  0  0  0  0  0  0  0  0  0  0  0
   10.7756   45.2392   50.7827 N   0  0  0  0  0  0  0  0  0  0  0  0
    5.8155   40.6035   48.3345 C   0  0  0  0  0  0  0  0  0  0  0  0
    2.4895   45.4481   52.5805 C   0  0  0  0  0  0  0  0  0  0  0  0
    6.0546   41.7808   49.0500 C   0  0  0  0  0  0  0  0  0  0  0  0
    6.3371   45.3570   54.5180 C   0  0  0  0  0  0  0  0  0  0  0  0
    7.9590   47.3195   53.0458 C   0  0  0  0  0  0  0  0  0  0  0  0
    1.9437   38.9195   48.4563 O   0  0  0  0  0  0  0  0  0  0  0  0
    2.1700   39.9736   49.1081 C   0  0  0  0  0  0  0  0  0  0  0  0
    3.9076   45.9138   52.6782 C   0  0  0  0  0  0  0  0  0  0  0  0
    1.1431   40.5502   49.8467 O   0  0  0  0  0  0  0  0  0  0  0  0
    2.4450   44.0912   52.2484 O   0  0  0  0  0  0  0  0  0  0  0  0
    5.9524   48.4126   52.5581 O   0  0  0  0  0  0  0  0  0  0  0  0
    7.7248   43.6596   49.4798 C   0  0  0  0  0  0  0  0  0  0  0  0
    6.4208   45.2584   56.2925 Cl  0  0  0  0  0  0  0  0  0  0  0  0
  1 28  1  0
  1 34  1  0
  1  2  1  0
  2 22  1  0
  2 27  1  0
  3  4  1  0
  4 13  4  0
  4 28  4  0
  6 10  4  0
  8 24  4  0
  8  6  4  0
  9  1  1  0
 10  7  4  0
 11  3  1  0
 11  9  2  0
 12 26  1  0
 12 35  1  0
 13 17  4  0
 14 19  1  0
 15 23  1  0
 15  3  2  0
 17  5  4  0
 18 11  1  0
 20 15  1  0
 21  9  1  0
 21 31  2  0
 24 26  4  0
 25 16  1  0
 25 31  1  0
 25 33  1  0
 26  7  4  0
 27 36  1  0
 28  5  4  0
 29 30  2  0
 30  6  1  0
 30 32  1  0
 31 22  1  0
 33 14  1  0
 35 20  2  0
 35 18  1  0
M  END
$$$$

     RDKit          3D

 18 19  0  0  0  0  0  0  0  0999 V2000
    6.9576   46.2502   53.4092 N   0  0  0  0  0  0  0  0  0  0  0  0
    6.0324   41.0807   47.4388 C   0  0  0  0  0  0  0  0  0  0  0  0
    9.0282   44.3592   49.4239 N   0  0  0  0  0  0  0  0  0  0  0  0
    6.2488   41.9432   48.5197 C   0  0  0  0  0  0  0  0  0  0  0  0
   10.3580   46.0622   50.5260 N   0  0  0  0  0  0  0  0  0  0  0  0
    9.1657   45.2933   50.4025 C   0  0  0  0  0  0  0  0  0  0  0  0
    3.9495   40.3363   48.4228 C   0  0  0  0  0  0  0  0  0  0  0  0
    5.3054   41.9890   49.5569 C   0  0  0  0  0  0  0  0  0  0  0  0
    7.8295   43.7417   49.4835 C   0  0  0  0  0  0  0  0  0  0  0  0
    6.5833   47.3882   54.2324 C   0  0  0  0  0  0  0  0  0  0  0  0
    7.4443   42.7359   48.5358 N   0  0  0  0  0  0  0  0  0  0  0  0
    8.6974   47.4140   52.3868 O   0  0  0  0  0  0  0  0  0  0  0  0
    4.1592   41.1904   49.5084 C   0  0  0  0  0  0  0  0  0  0  0  0
    8.0737   45.4297   51.2641 C   0  0  0  0  0  0  0  0  0  0  0  0
    6.8906   44.3450   50.7468 S   0  0  0  0  0  0  0  0  0  0  0  0
    7.9386   46.4067   52.3693 C   0  0  0  0  0  0  0  0  0  0  0  0
    6.4671   44.9415   53.8090 C   0  0  0  0  0  0  0  0  0  0  0  0
    4.8867   40.2808   47.3879 C   0  0  0  0  0  0  0  0  0  0  0  0
  1 10  1  0
  1 17  1  0
  2 18  4  0
  2  4  4  0
  3  6  4  0
  4  8  4  0
  6  5  1  0
  6 14  4  0
  7 13  4  0
  8 13  4  0
  9  3  4  0
  9 15  4  0
 11  4  1  0
 11  9  1  0
 14 16  1  0
 15 14  4  0
 16 12  2  0
 16  1  1  0
 18  7  4  0
M  END
$$$$

     RDKit          3D

 23 25  0  0  0  0  0  0  0  0999 V2000
    5.7682   45.2558   57.2163 C   0  0  0  0  0  0  0  0  0  0  0  0
    7.6447   43.7008   48.7919 N   0  0  0  0  0  0  0  0  0  0  0  0
    8.0151   43.1332   47.5670 N   0  0  0  0  0  0  0  0  0  0  0  0
    5.7168   43.2770   46.6933 C   0  0  0  0  0  0  0  0  0  0  0  0
    5.8831   45.6068   53.5334 C   0  0  0  0  0  0  0  0  0  0  0  0
    4.7986   43.0619   45.6612 C   0  0  0  0  0  0  0  0  0  0  0  0
    6.6638   46.3253   51.5526 C   0  0  0  0  0  0  0  0  0  0  0  0
    6.9757   47.2165   50.7199 O   0  0  0  0  0  0  0  0  0  0  0  0
    6.5627   42.1348   44.2857 C   0  0  0  0  0  0  0  0  0  0  0  0
    4.3625   44.6929   57.4128 C   0  0  0  0  0  0  0  0  0  0  0  0
    3.4061   45.3564   56.4272 C   0  0  0  0  0  0  0  0  0  0  0  0
    5.3609   45.7345   54.9242 C   0  0  0  0  0  0  0  0  0  0  0  0
    6.2237   45.0010   55.8507 N   0  0  0  0  0  0  0  0  0  0  0  0
    7.0629   42.9211   46.5244 C   0  0  0  0  0  0  0  0  0  0  0  0
    9.0888   44.6198   51.8527 N   0  0  0  0  0  0  0  0  0  0  0  0
    6.7525   44.8721   51.2449 C   0  0  0  0  0  0  0  0  0  0  0  0
    8.5152   43.8778   49.7001 N   0  0  0  0  0  0  0  0  0  0  0  0
    7.4812   42.3499   45.3179 C   0  0  0  0  0  0  0  0  0  0  0  0
    8.1680   44.4544   50.9598 C   0  0  0  0  0  0  0  0  0  0  0  0
    3.9285   45.2053   55.0024 C   0  0  0  0  0  0  0  0  0  0  0  0
    6.1849   46.6519   52.8435 N   0  0  0  0  0  0  0  0  0  0  0  0
    6.1115   44.0149   52.7276 S   0  0  0  0  0  0  0  0  0  0  0  0
    5.2216   42.4908   44.4574 C   0  0  0  0  0  0  0  0  0  0  0  0
  2 17  2  3
  3 14  1  0
  3  2  1  0
  4  6  4  0
  5 21  2  0
  7  8  2  0
  7 21  1  0
  9 18  4  0
  9 23  4  0
 10  1  1  0
 11 10  1  0
 12  5  1  0
 12 13  1  0
 13  1  1  0
 14  4  4  0
 16 19  1  0
 16  7  1  0
 17 19  1  0
 18 14  4  0
 19 15  2  0
 20 12  1  0
 20 11  1  0
 22 16  1  0
 22  5  1  0
 23  6  4  0
M  END
$$$$

     RDKit          3D

 28 30  0  0  0  0  0  0  0  0999 V2000
    2.4643   45.0963   50.2079 C   0  0  0  0  0  0  0  0  0  0  0  0
    6.9396   42.5880   49.7595 N   0  0  0  0  0  0  0  0  0  0  0  0
    8.5238   46.2782   51.6404 C   0  0  0  0  0  0  0  0  0  0  0  0
    1.4441   44.1535   52.9976 C   0  0  0  0  0  0  0  0  0  0  0  0
    4.2568   46.0805   51.4057 N   0  0  0  0  0  0  0  0  0  0  0  0
    8.3031   48.4395   53.0177 C   0  0  0  0  0  0  0  0  0  0  0  0
    8.7417   44.2284   50.1293 N   0  0  0  0  0  0  0  0  0  0  0  0
    9.1507   47.3374   52.4669 C   0  0  0  0  0  0  0  0  0  0  0  0
    2.8962   45.6021   51.5754 C   0  0  0  0  0  0  0  0  0  0  0  0
    3.3589   40.4675   50.5655 C   0  0  0  0  0  0  0  0  0  0  0  0
    6.3505   47.0563   52.4127 N   0  0  0  0  0  0  0  0  0  0  0  0
    3.7243   45.0149   49.3600 C   0  0  0  0  0  0  0  0  0  0  0  0
    6.9538   47.8854   53.4619 C   0  0  0  0  0  0  0  0  0  0  0  0
    4.9184   46.8896   52.3973 C   0  0  0  0  0  0  0  0  0  0  0  0
    7.7130   43.3880   50.6626 C   0  0  0  0  0  0  0  0  0  0  0  0
    7.1889   46.1994   51.6190 C   0  0  0  0  0  0  0  0  0  0  0  0
    5.1811   41.0422   49.0784 C   0  0  0  0  0  0  0  0  0  0  0  0
    3.9955   40.3443   49.3275 C   0  0  0  0  0  0  0  0  0  0  0  0
    2.8708   44.4680   52.5908 C   0  0  0  0  0  0  0  0  0  0  0  0
    5.7408   41.8620   50.0645 C   0  0  0  0  0  0  0  0  0  0  0  0
    7.5828   43.2541   51.9435 N   0  0  0  0  0  0  0  0  0  0  0  0
    3.9071   41.2896   51.5537 C   0  0  0  0  0  0  0  0  0  0  0  0
   10.3915   47.3482   52.6823 O   0  0  0  0  0  0  0  0  0  0  0  0
    9.3312   45.3569   50.7937 C   0  0  0  0  0  0  0  0  0  0  0  0
   10.5385   45.6869   50.4734 N   0  0  0  0  0  0  0  0  0  0  0  0
    4.7628   45.8650   50.0634 C   0  0  0  0  0  0  0  0  0  0  0  0
    5.0920   41.9871   51.3032 C   0  0  0  0  0  0  0  0  0  0  0  0
    4.2238   47.4428   53.2943 O   0  0  0  0  0  0  0  0  0  0  0  0
  1  9  1  0
  2 20  1  0
  2 15  1  0
  3 16  2  0
  3  8  1  0
  5 14  1  0
  5  9  1  0
  6 13  1  0
  7 24  1  0
  8 23  2  0
  8  6  1  0
  9 19  1  0
 10 22  4  0
 11 14  1  0
 11 13  1  0
 12  1  1  0
 14 28  2  0
 15  7  1  0
 15 21  2  0
 16 11  1  0
 17 18  4  0
 17 20  4  0
 18 10  4  0
 19  4  1  0
 20 27  4  0
 24 25  2  0
 24  3  1  0
 26 12  1  0
 26  5  1  0
 27 22  4  0
M  END
$$$$

     RDKit          3D

 23 25  0  0  0  0  0  0  0  0999 V2000
    4.4400   40.8553   48.0588 C   0  0  0  0  0  0  0  0  0  0  0  0
    8.4892   46.3174   52.0369 N   0  0  0  0  0  0  0  0  0  0  0  0
    5.4275   46.9877   56.1944 C   0  0  0  0  0  0  0  0  0  0  0  0
    8.7007   45.2284   51.1375 C   0  0  0  0  0  0  0  0  0  0  0  0
    8.7822   44.5394   48.8059 N   0  0  0  0  0  0  0  0  0  0  0  0
    7.7696   42.5323   47.6355 N   0  0  0  0  0  0  0  0  0  0  0  0
    5.7172   39.6962   46.3613 C   0  0  0  0  0  0  0  0  0  0  0  0
    4.5032   47.1272   55.2417 C   0  0  0  0  0  0  0  0  0  0  0  0
    9.0480   46.3436   53.3799 C   0  0  0  0  0  0  0  0  0  0  0  0
    4.8698   47.5267   53.8761 C   0  0  0  0  0  0  0  0  0  0  0  0
    5.4957   41.7541   48.2373 C   0  0  0  0  0  0  0  0  0  0  0  0
    8.0211   45.2576   49.7999 C   0  0  0  0  0  0  0  0  0  0  0  0
    6.1496   47.6745   53.5434 C   0  0  0  0  0  0  0  0  0  0  0  0
    6.6692   41.6296   47.4789 C   0  0  0  0  0  0  0  0  0  0  0  0
    5.0049   46.5897   57.5621 C   0  0  0  0  0  0  0  0  0  0  0  0
    4.5510   39.8259   47.1204 C   0  0  0  0  0  0  0  0  0  0  0  0
    7.8253   43.6330   48.5479 C   0  0  0  0  0  0  0  0  0  0  0  0
    6.7723   40.5960   46.5411 C   0  0  0  0  0  0  0  0  0  0  0  0
    8.5752   47.5858   54.1185 C   0  0  0  0  0  0  0  0  0  0  0  0
    6.8768   47.3126   55.9416 C   0  0  0  0  0  0  0  0  0  0  0  0
    6.6529   44.2842   49.7982 S   0  0  0  0  0  0  0  0  0  0  0  0
    7.1820   47.4493   54.5141 N   0  0  0  0  0  0  0  0  0  0  0  0
    9.3585   44.1803   51.5224 N   0  0  0  0  0  0  0  0  0  0  0  0
  2  9  1  0
  3 15  1  0
  4  2  1  0
  5 12  1  0
  6 14  1  0
  6 17  1  0
  7 16  4  0
  8  3  2  0
  9 19  1  0
 10 13  2  0
 10  8  1  0
 11  1  4  0
 12  4  1  0
 13 22  1  0
 14 11  4  0
 16  1  4  0
 17  5  2  0
 17 21  1  0
 18  7  4  0
 18 14  4  0
 19 22  1  0
 20  3  1  0
 21 12  1  0
 22 20  1  0
 23  4  2  0
M  END
$$$$

     RDKit          3D

 36 42  0  0  0  0  0  0  0  0999 V2000
    5.9364   46.4164   55.4825 C   0  0  0  0  0  0  0  0  0  0  0  0
    1.4626   47.2707   53.7046 O   0  0  0  0  0  0  0  0  0  0  0  0
    7.6594   43.9460   50.9821 S   0  0  0  0  0  0  0  0  0  0  0  0
    5.0215   46.6143   54.3001 C   0  0  0  0  0  0  0  0  0  0  0  0
    2.6260   40.2922   46.0423 O   0  0  0  0  0  0  0  0  0  0  0  0
    8.8436   45.3267   51.0682 C   0  0  0  0  0  0  0  0  0  0  0  0
    2.2302   44.0052   50.7881 N   0  0  0  0  0  0  0  0  0  0  0  0
    2.9716   43.4587   50.0874 C   0  0  0  0  0  0  0  0  0  0  0  0
   11.0364   45.2263   51.9489 C   0  0  0  0  0  0  0  0  0  0  0  0
    6.1541   42.4755   48.3856 C   0  0  0  0  0  0  0  0  0  0  0  0
    4.6253   46.9897   51.8874 C   0  0  0  0  0  0  0  0  0  0  0  0
    3.3790   38.8219   47.3538 C   0  0  0  0  0  0  0  0  0  0  0  0
    7.5402   42.8387   48.3431 N   0  0  0  0  0  0  0  0  0  0  0  0
    5.2424   43.1365   49.2212 C   0  0  0  0  0  0  0  0  0  0  0  0
    4.3391   41.1122   47.5140 C   0  0  0  0  0  0  0  0  0  0  0  0
    9.8539   44.9603   50.0690 C   0  0  0  0  0  0  0  0  0  0  0  0
    5.6915   41.4715   47.5281 C   0  0  0  0  0  0  0  0  0  0  0  0
    7.7541   46.0420   53.8878 C   0  0  0  0  0  0  0  0  0  0  0  0
    7.2871   45.9860   55.1011 N   0  0  0  0  0  0  0  0  0  0  0  0
    2.8831   46.8875   55.5753 C   0  0  0  0  0  0  0  0  0  0  0  0
    3.8895   40.0146   46.5918 C   0  0  0  0  0  0  0  0  0  0  0  0
    2.0723   39.1800   46.6996 C   0  0  0  0  0  0  0  0  0  0  0  0
    3.8921   42.7814   49.2188 C   0  0  0  0  0  0  0  0  0  0  0  0
    2.7541   47.0381   53.3690 N   0  0  0  0  0  0  0  0  0  0  0  0
    8.2393   43.6526   49.2933 C   0  0  0  0  0  0  0  0  0  0  0  0
    9.6240   45.3415   52.2931 N   0  0  0  0  0  0  0  0  0  0  0  0
   11.0477   44.8463   50.5442 N   0  0  0  0  0  0  0  0  0  0  0  0
    9.1459   45.6195   53.6209 C   0  0  0  0  0  0  0  0  0  0  0  0
    5.5139   46.7003   53.0479 C   0  0  0  0  0  0  0  0  0  0  0  0
    3.5775   46.8197   54.4762 C   0  0  0  0  0  0  0  0  0  0  0  0
    3.4399   41.7695   48.3687 C   0  0  0  0  0  0  0  0  0  0  0  0
    1.4748   47.1728   55.1258 C   0  0  0  0  0  0  0  0  0  0  0  0
    9.9358   45.4854   54.5947 O   0  0  0  0  0  0  0  0  0  0  0  0
    3.3041   47.1557   52.0535 C   0  0  0  0  0  0  0  0  0  0  0  0
    9.3943   44.1521   49.0035 N   0  0  0  0  0  0  0  0  0  0  0  0
    6.9052   46.4811   52.8234 N   0  0  0  0  0  0  0  0  0  0  0  0
  2 32  1  0
  4 30  1  0
  4  1  1  0
  5 21  1  0
  6  3  1  0
  6 26  1  0
  8  7  3  0
  9 26  1  0
 10 14  4  0
 11 34  2  0
 11 29  1  0
 13 10  1  0
 13 25  1  0
 14 23  4  0
 15 17  4  0
 15 31  4  0
 16 27  2  0
 16  6  1  0
 17 10  4  0
 18 19  2  0
 19  1  1  0
 21 12  1  0
 21 15  1  0
 22  5  1  0
 22 12  1  0
 23  8  1  0
 24  2  1  0
 24 30  1  0
 25 35  2  0
 25  3  1  0
 26 28  1  0
 27  9  1  0
 28 18  1  0
 28 33  2  0
 29  4  2  0
 30 20  2  0
 31 23  4  0
 32 20  1  0
 34 24  1  0
 35 16  1  0
 36 29  1  0
 36 18  1  0
M  END
$$$$

     RDKit          3D

 27 29  0  0  0  0  0  0  0  0999 V2000
    7.0812   42.7729   50.7116 N   0  0  0  0  0  0  0  0  0  0  0  0
    2.1628   47.6232   52.5738 C   0  0  0  0  0  0  0  0  0  0  0  0
    4.1216   46.1360   52.4335 N   0  0  0  0  0  0  0  0  0  0  0  0
    8.4457   47.3693   51.9809 N   0  0  0  0  0  0  0  0  0  0  0  0
    5.2152   45.7526   51.5255 C   0  0  0  0  0  0  0  0  0  0  0  0
    7.1205   47.0460   52.4425 N   0  0  0  0  0  0  0  0  0  0  0  0
    4.6390   45.2665   50.2066 C   0  0  0  0  0  0  0  0  0  0  0  0
    4.6232   46.1395   53.8033 C   0  0  0  0  0  0  0  0  0  0  0  0
    9.3876   44.7323   52.0910 C   0  0  0  0  0  0  0  0  0  0  0  0
    6.4482   42.1009   48.5626 C   0  0  0  0  0  0  0  0  0  0  0  0
    7.6868   44.0326   50.4469 C   0  0  0  0  0  0  0  0  0  0  0  0
    3.6178   47.4799   52.1382 C   0  0  0  0  0  0  0  0  0  0  0  0
    7.6541   42.8529   48.5102 N   0  0  0  0  0  0  0  0  0  0  0  0
    6.2547   46.8631   51.2653 C   0  0  0  0  0  0  0  0  0  0  0  0
    9.5875   44.1239   53.3609 N   0  0  0  0  0  0  0  0  0  0  0  0
    3.5806   45.5958   54.7833 C   0  0  0  0  0  0  0  0  0  0  0  0
    2.0034   47.4717   54.0828 C   0  0  0  0  0  0  0  0  0  0  0  0
    2.1363   46.0058   54.4776 C   0  0  0  0  0  0  0  0  0  0  0  0
    4.6637   40.9164   47.4310 C   0  0  0  0  0  0  0  0  0  0  0  0
    4.0765   40.6218   48.6656 C   0  0  0  0  0  0  0  0  0  0  0  0
    4.6750   41.0667   49.8487 C   0  0  0  0  0  0  0  0  0  0  0  0
    8.1334   44.2872   49.2607 N   0  0  0  0  0  0  0  0  0  0  0  0
    7.6613   46.4321   51.2494 C   0  0  0  0  0  0  0  0  0  0  0  0
    7.9875   44.9567   51.5905 C   0  0  0  0  0  0  0  0  0  0  0  0
    5.8496   41.6560   47.3795 C   0  0  0  0  0  0  0  0  0  0  0  0
   10.4087   45.0288   51.3554 N   0  0  0  0  0  0  0  0  0  0  0  0
    5.8609   41.8063   49.7972 C   0  0  0  0  0  0  0  0  0  0  0  0
  1 11  1  0
  2 17  1  0
  3  8  1  0
  5  7  1  0
  5  3  1  0
  6  4  1  0
  8 16  1  0
  9 15  1  0
 10 27  4  0
 11 24  1  0
 12  2  1  0
 12  3  1  0
 13 10  1  0
 14  5  1  0
 14  6  1  0
 17 18  1  0
 18 16  1  0
 19 20  4  0
 20 21  4  0
 22 11  2  0
 23 24  1  0
 23 14  1  0
 23  4  1  0
 23  6  1  0
 24  9  1  0
 25 19  4  0
 25 10  4  0
 26  9  2  0
 27 21  4  0
M  END
$$$$

     RDKit          3D

 23 25  0  0  0  0  0  0  0  0999 V2000
    7.1941   45.0530   49.2854 C   0  0  0  0  0  0  0  0  0  0  0  0
    5.4814   45.6775   53.1169 C   0  0  0  0  0  0  0  0  0  0  0  0
    7.8839   46.1169   49.0342 N   0  0  0  0  0  0  0  0  0  0  0  0
    5.5071   42.5203   49.4801 C   0  0  0  0  0  0  0  0  0  0  0  0
   11.2066   45.4790   51.3909 O   0  0  0  0  0  0  0  0  0  0  0  0
    5.2732   42.6277   47.0762 C   0  0  0  0  0  0  0  0  0  0  0  0
    7.7699   46.1909   53.7389 N   0  0  0  0  0  0  0  0  0  0  0  0
    4.7138   41.3698   49.5078 C   0  0  0  0  0  0  0  0  0  0  0  0
    4.5797   45.1809   52.2848 C   0  0  0  0  0  0  0  0  0  0  0  0
    9.8917   44.0420   50.1386 N   0  0  0  0  0  0  0  0  0  0  0  0
    4.4797   41.4768   47.1019 C   0  0  0  0  0  0  0  0  0  0  0  0
    6.8981   45.6895   52.8776 N   0  0  0  0  0  0  0  0  0  0  0  0
    8.9175   45.4502   51.9868 C   0  0  0  0  0  0  0  0  0  0  0  0
    6.9256   44.6744   50.6409 N   0  0  0  0  0  0  0  0  0  0  0  0
    3.2697   45.3557   52.8926 C   0  0  0  0  0  0  0  0  0  0  0  0
    5.7911   43.1588   48.2629 C   0  0  0  0  0  0  0  0  0  0  0  0
    4.1996   40.8480   48.3180 C   0  0  0  0  0  0  0  0  0  0  0  0
    7.5617   45.2439   51.7923 C   0  0  0  0  0  0  0  0  0  0  0  0
    9.0137   46.0581   53.2287 C   0  0  0  0  0  0  0  0  0  0  0  0
    4.8469   46.2217   54.3481 C   0  0  0  0  0  0  0  0  0  0  0  0
   10.0576   45.0179   51.1614 C   0  0  0  0  0  0  0  0  0  0  0  0
    3.4076   45.9486   54.0703 C   0  0  0  0  0  0  0  0  0  0  0  0
    6.6029   44.3394   48.1918 N   0  0  0  0  0  0  0  0  0  0  0  0
  1  3  2  0
  1 14  1  0
  2 20  1  0
  6 16  4  0
  8  4  4  0
  9  2  2  0
  9 15  1  0
 10 21  1  0
 11  6  4  0
 11 17  4  0
 12  7  4  0
 12  2  1  0
 13 21  1  0
 13 19  4  0
 14 18  1  0
 15 22  2  0
 16  4  4  0
 17  8  4  0
 18 13  4  0
 18 12  4  0
 19  7  4  0
 20 22  1  0
 21  5  2  0
 23 16  1  0
 23  1  1  0
M  END
$$$$

     RDKit          3D

 27 28  0  0  0  0  0  0  0  0999 V2000
    4.0689   45.2096   53.6369 C   0  0  0  0  0  0  0  0  0  0  0  0
    1.7075   45.9911   53.2468 C   0  0  0  0  0  0  0  0  0  0  0  0
    3.1162   45.7562   52.7703 C   0  0  0  0  0  0  0  0  0  0  0  0
   10.5117   44.3047   52.1047 N   0  0  0  0  0  0  0  0  0  0  0  0
    3.4730   46.0646   51.4530 C   0  0  0  0  0  0  0  0  0  0  0  0
    4.7799   45.8424   51.0098 C   0  0  0  0  0  0  0  0  0  0  0  0
    5.3749   44.9876   53.1920 C   0  0  0  0  0  0  0  0  0  0  0  0
    8.1907   44.7750   52.1725 N   0  0  0  0  0  0  0  0  0  0  0  0
    9.3461   44.1597   51.5636 C   0  0  0  0  0  0  0  0  0  0  0  0
    2.3384   47.5261   54.9855 C   0  0  0  0  0  0  0  0  0  0  0  0
    6.8965   41.7190   48.0753 C   0  0  0  0  0  0  0  0  0  0  0  0
    8.6152   46.7551   53.5100 C   0  0  0  0  0  0  0  0  0  0  0  0
    1.7576   48.3621   52.8563 C   0  0  0  0  0  0  0  0  0  0  0  0
    1.4746   47.3198   53.8322 N   0  0  0  0  0  0  0  0  0  0  0  0
    9.9704   47.1873   53.5120 N   0  0  0  0  0  0  0  0  0  0  0  0
    4.5486   40.8286   46.8294 C   0  0  0  0  0  0  0  0  0  0  0  0
    9.2433   43.3528   50.3816 N   0  0  0  0  0  0  0  0  0  0  0  0
    7.0626   45.0702   51.3808 N   0  0  0  0  0  0  0  0  0  0  0  0
    8.1075   42.1632   48.6922 N   0  0  0  0  0  0  0  0  0  0  0  0
    6.9667   40.9314   46.9213 C   0  0  0  0  0  0  0  0  0  0  0  0
    7.6867   47.6028   53.4579 O   0  0  0  0  0  0  0  0  0  0  0  0
    8.2954   45.2986   53.5348 C   0  0  0  0  0  0  0  0  0  0  0  0
    5.7414   45.3165   51.8788 C   0  0  0  0  0  0  0  0  0  0  0  0
    5.7961   40.4866   46.2992 C   0  0  0  0  0  0  0  0  0  0  0  0
    5.6411   42.0603   48.6040 C   0  0  0  0  0  0  0  0  0  0  0  0
    8.1209   42.9630   49.8724 C   0  0  0  0  0  0  0  0  0  0  0  0
    4.4710   41.6156   47.9819 C   0  0  0  0  0  0  0  0  0  0  0  0
  2 14  1  0
  3  2  1  0
  3  1  4  0
  5  3  4  0
  6  5  4  0
  6 23  4  0
  7  1  4  0
  8 22  1  0
  9  4  2  0
  9  8  1  0
 11 25  4  0
 12 22  1  0
 12 15  1  0
 14 13  1  0
 14 10  1  0
 16 27  4  0
 17  9  1  0
 18  8  1  0
 18 23  1  0
 19 11  1  0
 19 26  1  0
 20 24  4  0
 20 11  4  0
 21 12  2  0
 23  7  4  0
 24 16  4  0
 26 17  2  3
 27 25  4  0
M  END
$$$$

     RDKit          3D

 27 30  0  0  0  0  0  0  0  0999 V2000
    8.6990   47.1805   52.3606 N   0  0  0  0  0  0  0  0  0  0  0  0
    3.9448   46.4419   55.7598 C   0  0  0  0  0  0  0  0  0  0  0  0
    8.0981   42.4352   48.5597 N   0  0  0  0  0  0  0  0  0  0  0  0
    4.4431   40.3215   48.1665 C   0  0  0  0  0  0  0  0  0  0  0  0
    6.7776   40.6254   47.6016 C   0  0  0  0  0  0  0  0  0  0  0  0
    5.6815   46.7409   53.9790 C   0  0  0  0  0  0  0  0  0  0  0  0
    2.6526   46.2418   56.1345 N   0  0  0  0  0  0  0  0  0  0  0  0
    8.3860   45.8135   50.4430 C   0  0  0  0  0  0  0  0  0  0  0  0
    7.1969   46.9949   52.1357 C   0  0  0  0  0  0  0  0  0  0  0  0
    5.9940   46.8229   52.5817 N   0  0  0  0  0  0  0  0  0  0  0  0
    7.2243   44.7102   49.9176 S   0  0  0  0  0  0  0  0  0  0  0  0
    9.6210   44.1479   49.3852 N   0  0  0  0  0  0  0  0  0  0  0  0
    4.2844   46.5253   54.4018 C   0  0  0  0  0  0  0  0  0  0  0  0
    1.6563   46.1169   55.2174 C   0  0  0  0  0  0  0  0  0  0  0  0
    6.6183   46.8503   54.8684 N   0  0  0  0  0  0  0  0  0  0  0  0
    5.5809   39.9155   47.4643 C   0  0  0  0  0  0  0  0  0  0  0  0
    5.5197   38.7280   46.5731 C   0  0  0  0  0  0  0  0  0  0  0  0
    9.8525   47.2869   53.2335 C   0  0  0  0  0  0  0  0  0  0  0  0
    4.5031   41.4363   49.0066 C   0  0  0  0  0  0  0  0  0  0  0  0
    1.9463   46.1930   53.8542 C   0  0  0  0  0  0  0  0  0  0  0  0
    6.8456   41.7474   48.4354 C   0  0  0  0  0  0  0  0  0  0  0  0
    9.6327   45.3386   50.0410 C   0  0  0  0  0  0  0  0  0  0  0  0
    5.7006   42.1445   49.1420 C   0  0  0  0  0  0  0  0  0  0  0  0
    8.3676   43.6629   49.2510 C   0  0  0  0  0  0  0  0  0  0  0  0
    8.1088   47.1355   51.0957 C   0  0  0  0  0  0  0  0  0  0  0  0
    3.2660   46.3979   53.4492 C   0  0  0  0  0  0  0  0  0  0  0  0
   10.8443   46.0515   50.2664 N   0  0  0  0  0  0  0  0  0  0  0  0
  1 18  1  0
  2  7  4  0
  3 21  1  0
  3 24  1  0
  4 19  4  0
  5 21  4  0
  6 13  1  0
  6 15  2  0
  9 10  2  3
  9  1  1  0
 10  6  1  0
 11  8  4  0
 12 22  4  0
 13  2  4  0
 14  7  4  0
 16  5  4  0
 16  4  4  0
 17 16  1  0
 19 23  4  0
 20 14  4  0
 21 23  4  0
 22 27  1  0
 22  8  4  0
 24 12  4  0
 24 11  4  0
 25  8  1  0
 25  9  1  0
 25  1  1  0
 26 20  4  0
 26 13  4  0
M  END
$$$$

     RDKit          3D

 28 31  0  0  0  0  0  0  0  0999 V2000
    6.6514   45.6503   52.8965 C   0  0  0  0  0  0  0  0  0  0  0  0
    5.1759   43.4882   48.8183 C   0  0  0  0  0  0  0  0  0  0  0  0
    7.2687   45.0747   50.1559 C   0  0  0  0  0  0  0  0  0  0  0  0
    6.2235   42.9802   48.0347 C   0  0  0  0  0  0  0  0  0  0  0  0
   10.1184   46.3189   53.2962 O   0  0  0  0  0  0  0  0  0  0  0  0
    1.7350   44.7247   53.2712 C   0  0  0  0  0  0  0  0  0  0  0  0
    4.5205   44.4649   53.3173 C   0  0  0  0  0  0  0  0  0  0  0  0
    6.6957   46.5984   54.0250 N   0  0  0  0  0  0  0  0  0  0  0  0
    8.2268   45.8147   50.9864 N   0  0  0  0  0  0  0  0  0  0  0  0
    2.4389   44.9523   54.4580 C   0  0  0  0  0  0  0  0  0  0  0  0
    8.0920   44.2360   49.2670 C   0  0  0  0  0  0  0  0  0  0  0  0
    5.9283   42.0990   46.9886 C   0  0  0  0  0  0  0  0  0  0  0  0
    3.5673   42.2443   47.5071 C   0  0  0  0  0  0  0  0  0  0  0  0
    3.8312   44.8243   54.4809 C   0  0  0  0  0  0  0  0  0  0  0  0
    7.5945   43.3214   48.2820 N   0  0  0  0  0  0  0  0  0  0  0  0
    9.3456   44.4090   49.4487 N   0  0  0  0  0  0  0  0  0  0  0  0
    8.0793   45.3758   52.3823 C   0  0  0  0  0  0  0  0  0  0  0  0
    3.8529   43.1220   48.5558 C   0  0  0  0  0  0  0  0  0  0  0  0
    8.0470   46.9186   54.2015 N   0  0  0  0  0  0  0  0  0  0  0  0
    4.3342   39.4760   46.1049 O   0  0  0  0  0  0  0  0  0  0  0  0
    4.3037   40.7825   45.6174 C   0  0  0  0  0  0  0  0  0  0  0  0
    9.5505   45.3828   50.5041 C   0  0  0  0  0  0  0  0  0  0  0  0
    8.8627   46.2317   53.2901 C   0  0  0  0  0  0  0  0  0  0  0  0
   10.2738   46.5267   49.9765 N   0  0  0  0  0  0  0  0  0  0  0  0
    6.0056   44.3451   53.3339 C   0  0  0  0  0  0  0  0  0  0  0  0
    2.4231   44.3702   52.1066 C   0  0  0  0  0  0  0  0  0  0  0  0
    4.6043   41.7370   46.7183 C   0  0  0  0  0  0  0  0  0  0  0  0
    3.8150   44.2422   52.1291 C   0  0  0  0  0  0  0  0  0  0  0  0
  1 25  1  0
  1  8  1  0
  4 15  1  0
  4  2  4  0
  6 10  4  0
  7 14  4  0
  9  3  1  0
  9 17  1  0
 10 14  4  0
 11 16  2  0
 11  3  1  0
 12 27  4  0
 12  4  4  0
 13 18  4  0
 15 11  1  0
 16 22  1  0
 17 23  1  0
 17  1  1  0
 18  2  4  0
 19  8  1  0
 20 21  1  0
 21 27  1  0
 22 24  1  0
 22  9  1  0
 23  5  2  0
 23 19  1  0
 25  7  1  0
 26  6  4  0
 27 13  4  0
 28 26  4  0
 28  7  4  0
M  END
$$$$

     RDKit          3D

 27 29  0  0  0  0  0  0  0  0999 V2000
    7.2097   46.6033   51.5161 C   0  0  0  0  0  0  0  0  0  0  0  0
    4.3950   44.9041   54.6064 C   0  0  0  0  0  0  0  0  0  0  0  0
    5.5604   42.8161   49.2744 C   0  0  0  0  0  0  0  0  0  0  0  0
    7.5718   44.5393   50.2522 N   0  0  0  0  0  0  0  0  0  0  0  0
    5.0008   40.2527   48.3181 C   0  0  0  0  0  0  0  0  0  0  0  0
    9.3604   47.8033   50.3164 N   0  0  0  0  0  0  0  0  0  0  0  0
    1.6935   44.2093   54.3005 C   0  0  0  0  0  0  0  0  0  0  0  0
    3.9775   41.1992   48.4169 C   0  0  0  0  0  0  0  0  0  0  0  0
    4.1481   43.4724   54.1490 C   0  0  0  0  0  0  0  0  0  0  0  0
    7.9670   45.8783   50.5876 C   0  0  0  0  0  0  0  0  0  0  0  0
    7.9428   42.1731   49.5628 N   0  0  0  0  0  0  0  0  0  0  0  0
    2.9213   45.8275   52.7385 C   0  0  0  0  0  0  0  0  0  0  0  0
    8.6339   48.4734   51.2466 C   0  0  0  0  0  0  0  0  0  0  0  0
    8.4466   43.4201   50.0591 C   0  0  0  0  0  0  0  0  0  0  0  0
    6.5941   41.8715   49.1773 C   0  0  0  0  0  0  0  0  0  0  0  0
    9.6731   43.4778   50.4618 N   0  0  0  0  0  0  0  0  0  0  0  0
    1.8106   44.9835   53.0727 N   0  0  0  0  0  0  0  0  0  0  0  0
    7.5654   47.8772   51.8337 N   0  0  0  0  0  0  0  0  0  0  0  0
    6.0731   45.9962   52.1342 N   0  0  0  0  0  0  0  0  0  0  0  0
    9.0504   46.5277   49.9670 C   0  0  0  0  0  0  0  0  0  0  0  0
    9.7865   45.8987   48.9226 N   0  0  0  0  0  0  0  0  0  0  0  0
    2.8239   46.5684   51.7238 O   0  0  0  0  0  0  0  0  0  0  0  0
    2.6884   43.0490   54.3275 C   0  0  0  0  0  0  0  0  0  0  0  0
    4.1422   45.8332   53.5097 N   0  0  0  0  0  0  0  0  0  0  0  0
    5.2445   46.6930   53.1047 C   0  0  0  0  0  0  0  0  0  0  0  0
    4.2573   42.4817   48.8955 C   0  0  0  0  0  0  0  0  0  0  0  0
    6.3037   40.5891   48.6980 C   0  0  0  0  0  0  0  0  0  0  0  0
  1 18  4  0
  2  9  1  0
  3 26  4  0
  4 10  1  0
  5  8  4  0
  6 13  4  0
  7 23  1  0
  8 26  4  0
  9 23  1  0
 10 20  4  0
 10  1  4  0
 11 15  1  0
 11 14  1  0
 12 24  1  0
 12 17  1  0
 14 16  2  0
 14  4  1  0
 15  3  4  0
 17  7  1  0
 18 13  4  0
 19  1  1  0
 19 25  1  0
 20  6  4  0
 21 20  1  0
 22 12  2  0
 24  2  1  0
 25 24  1  0
 27  5  4  0
 27 15  4  0
M  END
$$$$

     RDKit          3D

 28 31  0  0  0  0  0  0  0  0999 V2000
    5.9219   42.5591   47.8316 C   0  0  0  0  0  0  0  0  0  0  0  0
    3.8742   43.8937   54.6494 C   0  0  0  0  0  0  0  0  0  0  0  0
    5.4957   45.7744   54.5365 C   0  0  0  0  0  0  0  0  0  0  0  0
    5.7395   39.8934   44.5650 O   0  0  0  0  0  0  0  0  0  0  0  0
    7.0636   47.1764   51.6712 C   0  0  0  0  0  0  0  0  0  0  0  0
    2.5736   44.0304   54.1300 O   0  0  0  0  0  0  0  0  0  0  0  0
    3.5078   41.3876   47.0157 C   0  0  0  0  0  0  0  0  0  0  0  0
    6.2466   45.1896   49.8451 S   0  0  0  0  0  0  0  0  0  0  0  0
    4.3470   45.2063   55.2997 C   0  0  0  0  0  0  0  0  0  0  0  0
    7.1812   43.1107   48.2383 N   0  0  0  0  0  0  0  0  0  0  0  0
    8.6334   45.5153   50.4907 C   0  0  0  0  0  0  0  0  0  0  0  0
    9.8228   46.0062   51.0999 N   0  0  0  0  0  0  0  0  0  0  0  0
    5.8952   41.6748   46.7477 C   0  0  0  0  0  0  0  0  0  0  0  0
    2.0630   45.5701   55.9423 C   0  0  0  0  0  0  0  0  0  0  0  0
    4.6924   41.0867   46.3295 C   0  0  0  0  0  0  0  0  0  0  0  0
    4.6746   40.1624   45.1822 C   0  0  0  0  0  0  0  0  0  0  0  0
    1.7229   44.2502   55.2295 C   0  0  0  0  0  0  0  0  0  0  0  0
    8.6543   44.4664   49.6269 N   0  0  0  0  0  0  0  0  0  0  0  0
    4.7294   42.8436   48.5117 C   0  0  0  0  0  0  0  0  0  0  0  0
    3.2604   46.1893   55.3687 N   0  0  0  0  0  0  0  0  0  0  0  0
    6.6443   46.6319   52.9931 C   0  0  0  0  0  0  0  0  0  0  0  0
    7.3784   46.0614   50.7314 C   0  0  0  0  0  0  0  0  0  0  0  0
    7.4798   46.4049   54.0635 C   0  0  0  0  0  0  0  0  0  0  0  0
    7.4134   44.1583   49.1892 C   0  0  0  0  0  0  0  0  0  0  0  0
    3.4545   39.5603   44.7596 N   0  0  0  0  0  0  0  0  0  0  0  0
    6.7401   45.8602   55.0476 N   0  0  0  0  0  0  0  0  0  0  0  0
    3.5262   42.2628   48.1040 C   0  0  0  0  0  0  0  0  0  0  0  0
    5.3936   46.2297   53.2719 N   0  0  0  0  0  0  0  0  0  0  0  0
  1 19  4  0
  2  9  1  0
  2  6  1  0
  3 26  4  0
  4 16  2  0
  5 21  1  0
  6 17  1  0
  7 27  4  0
  8 22  4  0
  9  3  1  0
  9 20  1  0
 10  1  1  0
 10 24  1  0
 11 12  1  0
 11 22  4  0
 13 15  4  0
 13  1  4  0
 15  7  4  0
 16 25  1  0
 16 15  1  0
 17 14  1  0
 18 11  4  0
 20 14  1  0
 21 23  4  0
 22  5  1  0
 23 26  4  0
 24 18  4  0
 24  8  4  0
 27 19  4  0
 28 21  4  0
 28  3  4  0
M  END
$$$$

     RDKit          3D

 27 27  0  0  0  0  0  0  0  0999 V2000
    2.7090   43.8230   52.6730 C   0  0  0  0  0  0  0  0  0  0  0  0
    9.9057   46.0182   50.4760 C   0  0  0  0  0  0  0  0  0  0  0  0
    8.3890   46.6157   52.3672 N   0  0  0  0  0  0  0  0  0  0  0  0
    8.8359   44.6403   49.0656 C   0  0  0  0  0  0  0  0  0  0  0  0
    3.0835   46.2327   54.9733 C   0  0  0  0  0  0  0  0  0  0  0  0
    0.8723   45.4637   55.3979 O   0  0  0  0  0  0  0  0  0  0  0  0
    4.7195   45.7633   53.1680 C   0  0  0  0  0  0  0  0  0  0  0  0
   11.0001   46.7922   50.9548 N   0  0  0  0  0  0  0  0  0  0  0  0
    6.5018   41.5659   45.8823 C   0  0  0  0  0  0  0  0  0  0  0  0
    6.0153   45.8765   52.5646 N   0  0  0  0  0  0  0  0  0  0  0  0
    6.4580   42.8164   48.3786 C   0  0  0  0  0  0  0  0  0  0  0  0
    2.3010   44.1109   53.9366 C   0  0  0  0  0  0  0  0  0  0  0  0
    7.5676   42.3805   46.2766 C   0  0  0  0  0  0  0  0  0  0  0  0
    7.5527   43.0150   47.5241 C   0  0  0  0  0  0  0  0  0  0  0  0
    0.9461   43.5246   52.9913 Cl  0  0  0  0  0  0  0  0  0  0  0  0
    5.4129   41.3775   46.7374 C   0  0  0  0  0  0  0  0  0  0  0  0
    7.0629   47.2238   54.1665 O   0  0  0  0  0  0  0  0  0  0  0  0
    4.4077   46.3353   54.3279 C   0  0  0  0  0  0  0  0  0  0  0  0
    8.6877   45.9422   51.1369 C   0  0  0  0  0  0  0  0  0  0  0  0
    5.3912   42.0026   47.9868 C   0  0  0  0  0  0  0  0  0  0  0  0
    0.5455   46.5658   56.2361 C   0  0  0  0  0  0  0  0  0  0  0  0
    7.6682   44.9342   50.2515 S   0  0  0  0  0  0  0  0  0  0  0  0
    2.1190   45.3103   54.7767 C   0  0  0  0  0  0  0  0  0  0  0  0
    7.1465   46.5942   53.0791 C   0  0  0  0  0  0  0  0  0  0  0  0
    8.6735   43.8316   47.8917 N   0  0  0  0  0  0  0  0  0  0  0  0
    9.9870   45.2998   49.3251 N   0  0  0  0  0  0  0  0  0  0  0  0
    3.3013   43.2698   54.1717 C   0  0  0  0  0  0  0  0  0  0  0  0
  2  8  1  0
  2 19  4  0
  3 24  1  0
  4 26  4  0
  4 22  4  0
  6 21  1  0
  7 18  2  3
  9 16  4  0
 10 24  1  0
 10  7  1  0
 12 23  1  0
 13  9  4  0
 13 14  4  0
 14 11  4  0
 15 12  1  0
 16 20  4  0
 18  5  1  0
 19  3  1  0
 20 11  4  0
 22 19  4  0
 23  6  1  0
 23  5  2  3
 24 17  2  0
 25 14  1  0
 25  4  1  0
 26  2  4  0
 27 12  2  0
M  END
$$$$

     RDKit          3D

 18 20  0  0  0  0  0  0  0  0999 V2000
    9.1285   47.1474   52.7559 N   0  0  0  0  0  0  0  0  0  0  0  0
    5.8411   46.1460   51.2736 N   0  0  0  0  0  0  0  0  0  0  0  0
    6.7958   46.7669   52.0774 O   0  0  0  0  0  0  0  0  0  0  0  0
    5.7667   41.9285   47.5375 C   0  0  0  0  0  0  0  0  0  0  0  0
    4.5431   41.2560   47.6139 C   0  0  0  0  0  0  0  0  0  0  0  0
    8.5117   45.4364   51.1828 C   0  0  0  0  0  0  0  0  0  0  0  0
   10.6349   46.0454   50.2070 N   0  0  0  0  0  0  0  0  0  0  0  0
    9.5391   43.9842   49.7272 N   0  0  0  0  0  0  0  0  0  0  0  0
    5.7806   42.1751   49.9444 C   0  0  0  0  0  0  0  0  0  0  0  0
    8.1602   46.4280   51.9997 C   0  0  0  0  0  0  0  0  0  0  0  0
    9.8659   44.9537   50.7809 C   0  0  0  0  0  0  0  0  0  0  0  0
    8.2523   43.8878   49.5924 C   0  0  0  0  0  0  0  0  0  0  0  0
    4.5573   41.5033   50.0217 C   0  0  0  0  0  0  0  0  0  0  0  0
    6.1670   45.1764   50.4680 C   0  0  0  0  0  0  0  0  0  0  0  0
    6.3842   42.4055   48.6988 C   0  0  0  0  0  0  0  0  0  0  0  0
    3.9371   41.0460   48.8557 C   0  0  0  0  0  0  0  0  0  0  0  0
    7.6575   43.0506   48.5943 N   0  0  0  0  0  0  0  0  0  0  0  0
    7.5271   44.7457   50.4588 N   0  0  0  0  0  0  0  0  0  0  0  0
  2  3  1  0
  4  5  4  0
  4 15  4  0
  5 16  4  0
  6 10  2  0
  8 11  1  0
 10  1  1  0
 10  3  1  0
 11  7  1  0
 11  6  1  0
 12  8  2  0
 12 18  1  0
 13  9  4  0
 14  2  2  0
 15  9  4  0
 16 13  4  0
 17 15  1  0
 17 12  1  0
 18  6  1  0
 18 14  1  0
M  END
$$$$

     RDKit          3D

 28 29  0  0  0  0  0  0  0  0999 V2000
    3.1353   44.5286   52.2576 C   0  0  0  0  0  0  0  0  0  0  0  0
    3.8827   46.2106   50.2260 Cl  0  0  0  0  0  0  0  0  0  0  0  0
    5.7734   42.7649   48.4916 C   0  0  0  0  0  0  0  0  0  0  0  0
    8.2384   45.7702   52.1376 C   0  0  0  0  0  0  0  0  0  0  0  0
    2.6135   44.1173   53.4084 C   0  0  0  0  0  0  0  0  0  0  0  0
    4.1149   46.7581   52.7936 C   0  0  0  0  0  0  0  0  0  0  0  0
    3.6728   45.8512   51.9258 C   0  0  0  0  0  0  0  0  0  0  0  0
    8.0553   42.1908   49.2842 N   0  0  0  0  0  0  0  0  0  0  0  0
    8.1950   47.2374   50.2368 O   0  0  0  0  0  0  0  0  0  0  0  0
    8.8786   46.4972   50.9938 C   0  0  0  0  0  0  0  0  0  0  0  0
    6.3613   46.5170   53.0761 C   0  0  0  0  0  0  0  0  0  0  0  0
    8.1734   43.1675   50.3264 C   0  0  0  0  0  0  0  0  0  0  0  0
    4.7369   41.4345   46.7557 C   0  0  0  0  0  0  0  0  0  0  0  0
    9.3034   43.2822   50.9422 N   0  0  0  0  0  0  0  0  0  0  0  0
    4.9009   47.6307   54.9342 C   0  0  0  0  0  0  0  0  0  0  0  0
    1.3394   44.2064   55.8341 Cl  0  0  0  0  0  0  0  0  0  0  0  0
    3.1134   45.9689   55.0019 C   0  0  0  0  0  0  0  0  0  0  0  0
    5.8728   40.6224   46.7022 C   0  0  0  0  0  0  0  0  0  0  0  0
    5.9550   45.4488   52.2308 N   0  0  0  0  0  0  0  0  0  0  0  0
    7.0367   45.0009   51.6937 C   0  0  0  0  0  0  0  0  0  0  0  0
    6.9583   40.8820   47.5444 C   0  0  0  0  0  0  0  0  0  0  0  0
    2.4378   44.8781   54.6489 C   0  0  0  0  0  0  0  0  0  0  0  0
    4.6873   42.5068   47.6503 C   0  0  0  0  0  0  0  0  0  0  0  0
    4.0892   46.6640   54.2206 N   0  0  0  0  0  0  0  0  0  0  0  0
    7.0257   43.9003   50.7766 N   0  0  0  0  0  0  0  0  0  0  0  0
   10.2784   46.3699   50.7766 N   0  0  0  0  0  0  0  0  0  0  0  0
    6.9157   41.9505   48.4472 C   0  0  0  0  0  0  0  0  0  0  0  0
    7.6373   46.7269   53.0550 N   0  0  0  0  0  0  0  0  0  0  0  0
  1  5  2  0
  2  7  1  0
  3 23  4  0
  4 10  1  0
  4 28  1  0
  5 22  1  0
  6 24  1  0
  7  1  1  0
  7  6  2  0
  8 27  1  0
  8 12  1  0
 10  9  2  0
 11 28  2  0
 12 14  2  0
 12 25  1  0
 13 23  4  0
 18 13  4  0
 19 11  1  0
 20 19  2  0
 20  4  1  0
 21 18  4  0
 21 27  4  0
 22 17  2  0
 22 16  1  0
 24 15  1  0
 24 17  1  0
 25 20  1  0
 26 10  1  0
 27  3  4  0
M  END
$$$$

     RDKit          3D

 36 42  0  0  0  0  0  0  0  0999 V2000
    7.5150   45.2112   48.9911 N   0  0  0  0  0  0  0  0  0  0  0  0
    4.5241   40.2705   48.4552 C   0  0  0  0  0  0  0  0  0  0  0  0
    2.6503   48.9889   55.4186 C   0  0  0  0  0  0  0  0  0  0  0  0
    4.2524   38.6772   44.4437 N   0  0  0  0  0  0  0  0  0  0  0  0
    2.1253   48.4837   56.7671 C   0  0  0  0  0  0  0  0  0  0  0  0
    5.9897   45.9583   54.1362 C   0  0  0  0  0  0  0  0  0  0  0  0
    6.7462   43.3810   50.5378 S   0  0  0  0  0  0  0  0  0  0  0  0
    5.4749   40.3374   43.5801 C   0  0  0  0  0  0  0  0  0  0  0  0
    6.9780   46.1730   53.0671 N   0  0  0  0  0  0  0  0  0  0  0  0
    5.7483   41.5613   46.3035 C   0  0  0  0  0  0  0  0  0  0  0  0
    5.8607   42.1042   47.5879 C   0  0  0  0  0  0  0  0  0  0  0  0
    6.5868   43.3299   47.7536 N   0  0  0  0  0  0  0  0  0  0  0  0
    5.2382   41.4530   48.6619 C   0  0  0  0  0  0  0  0  0  0  0  0
    5.0336   40.3743   46.0851 C   0  0  0  0  0  0  0  0  0  0  0  0
    6.9322   43.9936   48.9774 C   0  0  0  0  0  0  0  0  0  0  0  0
    4.3723   38.4938   43.1641 O   0  0  0  0  0  0  0  0  0  0  0  0
    8.5879   45.8082   54.9496 C   0  0  0  0  0  0  0  0  0  0  0  0
    7.7817   45.6289   50.2571 C   0  0  0  0  0  0  0  0  0  0  0  0
    8.3921   45.9604   53.4401 C   0  0  0  0  0  0  0  0  0  0  0  0
    4.3495   47.4518   55.1704 C   0  0  0  0  0  0  0  0  0  0  0  0
    4.9217   39.8062   44.7308 C   0  0  0  0  0  0  0  0  0  0  0  0
    7.4126   44.7382   51.2731 C   0  0  0  0  0  0  0  0  0  0  0  0
    7.5891   44.8718   52.7611 C   0  0  0  0  0  0  0  0  0  0  0  0
    4.6213   45.7262   53.5747 C   0  0  0  0  0  0  0  0  0  0  0  0
    5.0844   39.4426   42.5985 C   0  0  0  0  0  0  0  0  0  0  0  0
    4.4229   39.7323   47.1703 C   0  0  0  0  0  0  0  0  0  0  0  0
    1.7078   46.2418   55.7925 N   0  0  0  0  0  0  0  0  0  0  0  0
    8.4068   46.8843   50.5038 N   0  0  0  0  0  0  0  0  0  0  0  0
    5.8369   47.2467   54.9375 C   0  0  0  0  0  0  0  0  0  0  0  0
    3.6124   46.7188   54.0510 C   0  0  0  0  0  0  0  0  0  0  0  0
    8.9790   44.8359   52.8898 O   0  0  0  0  0  0  0  0  0  0  0  0
    2.2975   46.0820   54.4866 C   0  0  0  0  0  0  0  0  0  0  0  0
    2.2624   46.9679   56.9327 C   0  0  0  0  0  0  0  0  0  0  0  0
    4.3624   44.8132   52.6365 C   0  0  0  0  0  0  0  0  0  0  0  0
    1.6498   45.4247   53.6299 O   0  0  0  0  0  0  0  0  0  0  0  0
    4.0439   48.8269   55.2597 O   0  0  0  0  0  0  0  0  0  0  0  0
  1 18  4  0
  3  5  1  0
  6 29  1  0
  7 22  4  0
  8 21  4  0
  9  6  1  0
  9 19  1  0
 10 14  4  0
 10 11  4  0
 11 13  4  0
 12 11  1  0
 12 15  1  0
 13  2  4  0
 14 26  4  0
 15  1  4  0
 15  7  4  0
 16  4  4  0
 18 28  1  0
 18 22  4  0
 19 17  1  0
 20 29  1  0
 20 36  1  0
 21  4  4  0
 21 14  1  0
 23 22  1  0
 23  9  1  0
 23 31  1  0
 23 19  1  0
 24  6  1  0
 25  8  4  0
 25 16  4  0
 26  2  4  0
 27 33  1  0
 30 24  1  0
 30 32  1  0
 30 20  1  0
 31 19  1  0
 32 27  1  0
 33  5  1  0
 34 24  2  0
 35 32  2  0
 36  3  1  0
M  END
$$$$

     RDKit          3D

 27 30  0  0  0  0  0  0  0  0999 V2000
    7.5765   46.0273   50.0258 N   0  0  0  0  0  0  0  0  0  0  0  0
    9.8688   45.1599   51.8369 N   0  0  0  0  0  0  0  0  0  0  0  0
    1.0584   44.3751   52.7133 C   0  0  0  0  0  0  0  0  0  0  0  0
    2.3340   44.7923   52.3153 C   0  0  0  0  0  0  0  0  0  0  0  0
    6.7895   45.8085   53.5697 C   0  0  0  0  0  0  0  0  0  0  0  0
    7.7485   44.8911   49.3312 C   0  0  0  0  0  0  0  0  0  0  0  0
    2.4661   46.2110   54.2805 C   0  0  0  0  0  0  0  0  0  0  0  0
    8.8256   45.4389   52.7648 C   0  0  0  0  0  0  0  0  0  0  0  0
    9.0365   45.5283   54.0347 N   0  0  0  0  0  0  0  0  0  0  0  0
    7.7642   45.7859   54.7014 C   0  0  0  0  0  0  0  0  0  0  0  0
    7.7574   42.2338   47.9311 C   0  0  0  0  0  0  0  0  0  0  0  0
    4.4006   47.8924   52.2310 Cl  0  0  0  0  0  0  0  0  0  0  0  0
    3.0106   44.1296   50.8349 Cl  0  0  0  0  0  0  0  0  0  0  0  0
    0.4872   44.8743   53.8864 C   0  0  0  0  0  0  0  0  0  0  0  0
    4.4142   46.1691   52.6905 C   0  0  0  0  0  0  0  0  0  0  0  0
    7.4229   45.6108   52.4189 C   0  0  0  0  0  0  0  0  0  0  0  0
    8.6494   40.8552   46.1536 C   0  0  0  0  0  0  0  0  0  0  0  0
    8.4936   43.3322   47.4629 C   0  0  0  0  0  0  0  0  0  0  0  0
    3.0478   45.7153   53.1028 C   0  0  0  0  0  0  0  0  0  0  0  0
    8.4303   44.6108   48.1052 N   0  0  0  0  0  0  0  0  0  0  0  0
    5.3749   45.9396   53.7607 N   0  0  0  0  0  0  0  0  0  0  0  0
    7.8338   40.9992   47.2791 C   0  0  0  0  0  0  0  0  0  0  0  0
    9.3829   41.9464   45.6796 C   0  0  0  0  0  0  0  0  0  0  0  0
    6.7864   45.4230   51.0687 C   0  0  0  0  0  0  0  0  0  0  0  0
    1.1912   45.7917   54.6708 C   0  0  0  0  0  0  0  0  0  0  0  0
    9.3031   43.1819   46.3312 C   0  0  0  0  0  0  0  0  0  0  0  0
    6.8945   43.8285   50.5562 S   0  0  0  0  0  0  0  0  0  0  0  0
  1 24  1  0
  2  8  1  0
  3  4  4  0
  3 14  4  0
  4 19  4  0
  5 10  1  0
  6  1  2  0
  6 27  1  0
  8  9  2  0
  9 10  1  0
 11 22  4  0
 13  4  1  0
 14 25  4  0
 15 12  1  0
 16  8  1  0
 16  5  2  0
 17 22  4  0
 18 11  4  0
 19 15  1  0
 19  7  4  0
 20 18  1  0
 20  6  1  0
 21  5  1  0
 21 15  1  0
 23 17  4  0
 24 16  1  0
 25  7  4  0
 26 23  4  0
 26 18  4  0
 27 24  1  0
M  END
$$$$

     RDKit          3D

 27 29  0  0  0  0  0  0  0  0999 V2000
    8.5907   44.0755   51.2086 C   0  0  0  0  0  0  0  0  0  0  0  0
    9.0622   43.2349   50.0725 C   0  0  0  0  0  0  0  0  0  0  0  0
    8.1799   42.6380   49.1069 N   0  0  0  0  0  0  0  0  0  0  0  0
    6.3511   48.8647   52.3096 C   0  0  0  0  0  0  0  0  0  0  0  0
    6.1083   41.9824   48.1918 N   0  0  0  0  0  0  0  0  0  0  0  0
    7.4404   49.0085   55.3578 C   0  0  0  0  0  0  0  0  0  0  0  0
    1.8823   41.7733   48.3061 C   0  0  0  0  0  0  0  0  0  0  0  0
    4.8729   44.5176   54.4824 C   0  0  0  0  0  0  0  0  0  0  0  0
   10.3307   43.0224   49.9427 N   0  0  0  0  0  0  0  0  0  0  0  0
   10.2594   45.5318   52.0503 O   0  0  0  0  0  0  0  0  0  0  0  0
    2.5707   42.3987   49.3495 C   0  0  0  0  0  0  0  0  0  0  0  0
    6.1636   48.7972   54.6982 N   0  0  0  0  0  0  0  0  0  0  0  0
    3.9249   45.6007   54.9412 C   0  0  0  0  0  0  0  0  0  0  0  0
    5.3841   45.9360   54.6918 C   0  0  0  0  0  0  0  0  0  0  0  0
    9.5331   44.3754   52.3359 C   0  0  0  0  0  0  0  0  0  0  0  0
    3.9664   42.4721   49.3204 C   0  0  0  0  0  0  0  0  0  0  0  0
    5.4119   46.8181   53.4243 C   0  0  0  0  0  0  0  0  0  0  0  0
    3.9855   41.2948   47.2045 C   0  0  0  0  0  0  0  0  0  0  0  0
    6.4217   47.9838   53.5204 C   0  0  0  0  0  0  0  0  0  0  0  0
    4.6404   46.5684   55.8552 C   0  0  0  0  0  0  0  0  0  0  0  0
    6.8293   48.5026   51.2469 O   0  0  0  0  0  0  0  0  0  0  0  0
    6.8914   42.5994   49.2112 C   0  0  0  0  0  0  0  0  0  0  0  0
    4.6809   41.9191   48.2456 C   0  0  0  0  0  0  0  0  0  0  0  0
    2.5894   41.2216   47.2339 C   0  0  0  0  0  0  0  0  0  0  0  0
    5.6323   46.0224   52.2095 N   0  0  0  0  0  0  0  0  0  0  0  0
    6.9171   45.4605   52.2626 N   0  0  0  0  0  0  0  0  0  0  0  0
    7.3745   44.6268   51.2014 C   0  0  0  0  0  0  0  0  0  0  0  0
  1 15  1  0
  2  9  2  0
  2  1  1  0
  3  2  1  0
  5 23  1  0
  5 22  1  0
  7 11  4  0
 10 15  1  0
 11 16  4  0
 12  6  1  0
 13  8  1  0
 14 17  1  0
 14  8  1  0
 14 20  1  0
 14 13  1  0
 17 25  1  0
 17 19  1  0
 18 23  4  0
 19  4  1  0
 19 12  1  0
 20 13  1  0
 21  4  2  0
 22  3  2  3
 23 16  4  0
 24 18  4  0
 24  7  4  0
 26 25  1  0
 27  1  2  3
 27 26  1  0
M  END
$$$$

     RDKit          3D

 28 32  0  0  0  0  0  0  0  0999 V2000
    4.1571   47.9597   54.4202 N   0  0  0  0  0  0  0  0  0  0  0  0
    8.1493   48.5069   53.2108 C   0  0  0  0  0  0  0  0  0  0  0  0
    1.5578   46.5717   54.4688 C   0  0  0  0  0  0  0  0  0  0  0  0
    2.7655   45.9949   54.0506 C   0  0  0  0  0  0  0  0  0  0  0  0
    7.0170   48.2099   53.8989 N   0  0  0  0  0  0  0  0  0  0  0  0
    6.2158   41.6739   49.0961 C   0  0  0  0  0  0  0  0  0  0  0  0
    9.3985   44.7424   48.9779 N   0  0  0  0  0  0  0  0  0  0  0  0
    3.8626   46.8509   53.4979 C   0  0  0  0  0  0  0  0  0  0  0  0
    0.5198   45.7647   54.9440 C   0  0  0  0  0  0  0  0  0  0  0  0
    7.2716   41.7053   48.1729 C   0  0  0  0  0  0  0  0  0  0  0  0
    5.3537   39.6580   48.0719 C   0  0  0  0  0  0  0  0  0  0  0  0
    8.3820   43.8589   49.0688 C   0  0  0  0  0  0  0  0  0  0  0  0
    6.2712   47.1196   53.5761 C   0  0  0  0  0  0  0  0  0  0  0  0
    1.8744   43.7948   54.5604 C   0  0  0  0  0  0  0  0  0  0  0  0
    2.9130   44.6010   54.0851 C   0  0  0  0  0  0  0  0  0  0  0  0
    6.6705   46.3021   52.5650 N   0  0  0  0  0  0  0  0  0  0  0  0
    7.7971   46.5605   51.8470 C   0  0  0  0  0  0  0  0  0  0  0  0
   10.2682   46.7696   49.9820 N   0  0  0  0  0  0  0  0  0  0  0  0
    7.3144   44.2766   50.3047 S   0  0  0  0  0  0  0  0  0  0  0  0
    0.6792   44.3768   54.9922 C   0  0  0  0  0  0  0  0  0  0  0  0
    7.3572   40.7015   47.2010 C   0  0  0  0  0  0  0  0  0  0  0  0
    5.2601   40.6550   49.0462 C   0  0  0  0  0  0  0  0  0  0  0  0
    9.2958   45.7321   49.9048 C   0  0  0  0  0  0  0  0  0  0  0  0
    8.2753   42.7303   48.1892 N   0  0  0  0  0  0  0  0  0  0  0  0
    8.5642   47.6856   52.1642 C   0  0  0  0  0  0  0  0  0  0  0  0
    8.1848   45.6482   50.7522 C   0  0  0  0  0  0  0  0  0  0  0  0
    6.4027   39.6811   47.1489 C   0  0  0  0  0  0  0  0  0  0  0  0
    5.0451   46.7890   54.3620 C   0  0  0  0  0  0  0  0  0  0  0  0
  1 28  1  0
  2  5  4  0
  3  9  4  0
  3  4  4  0
  4 15  4  0
  7 23  4  0
  8  4  1  0
  8  1  1  0
  8 28  1  0
  9 20  4  0
 10  6  4  0
 11 22  4  0
 12  7  4  0
 12 19  4  0
 13  5  4  0
 15 14  4  0
 16 13  4  0
 17 16  4  0
 17 25  4  0
 19 26  4  0
 20 14  4  0
 21 10  4  0
 22  6  4  0
 23 18  1  0
 23 26  4  0
 24 10  1  0
 24 12  1  0
 25  2  4  0
 26 17  1  0
 27 21  4  0
 27 11  4  0
 28 13  1  0
M  END
$$$$

     RDKit          3D

 36 40  0  0  0  0  0  0  0  0999 V2000
    5.3141   41.8325   48.2876 C   0  0  0  0  0  0  0  0  0  0  0  0
    2.6864   44.3711   56.0447 O   0  0  0  0  0  0  0  0  0  0  0  0
    6.4011   46.2635   54.8235 C   0  0  0  0  0  0  0  0  0  0  0  0
    6.5174   41.2297   50.3681 N   0  0  0  0  0  0  0  0  0  0  0  0
    7.8404   42.9251   52.0876 S   0  0  0  0  0  0  0  0  0  0  0  0
    4.0554   40.1511   47.0848 C   0  0  0  0  0  0  0  0  0  0  0  0
    4.8108   46.6761   51.4951 C   0  0  0  0  0  0  0  0  0  0  0  0
    7.3964   44.7277   50.4078 C   0  0  0  0  0  0  0  0  0  0  0  0
    9.5594   48.0231   53.0745 C   0  0  0  0  0  0  0  0  0  0  0  0
    5.2412   45.4724   55.4161 C   0  0  0  0  0  0  0  0  0  0  0  0
    9.9090   45.5678   52.8411 C   0  0  0  0  0  0  0  0  0  0  0  0
    8.0154   44.5410   51.6410 C   0  0  0  0  0  0  0  0  0  0  0  0
    7.3576   45.9811   49.7341 N   0  0  0  0  0  0  0  0  0  0  0  0
    6.3249   46.2471   53.3588 N   0  0  0  0  0  0  0  0  0  0  0  0
    7.5818   46.7248   52.7542 C   0  0  0  0  0  0  0  0  0  0  0  0
    1.5473   46.9714   48.8660 C   0  0  0  0  0  0  0  0  0  0  0  0
   10.3909   46.8451   53.5130 C   0  0  0  0  0  0  0  0  0  0  0  0
    2.8099   46.8108   52.6937 C   0  0  0  0  0  0  0  0  0  0  0  0
    6.8529   43.6113   49.8619 N   0  0  0  0  0  0  0  0  0  0  0  0
    5.2521   39.5580   49.1056 C   0  0  0  0  0  0  0  0  0  0  0  0
    5.6868   43.7523   55.4596 Cl  0  0  0  0  0  0  0  0  0  0  0  0
    5.6980   40.8794   49.2426 C   0  0  0  0  0  0  0  0  0  0  0  0
    4.1024   42.4920   46.2110 C   0  0  0  0  0  0  0  0  0  0  0  0
    8.4823   45.5833   52.5056 N   0  0  0  0  0  0  0  0  0  0  0  0
    4.4953   41.4724   47.2147 C   0  0  0  0  0  0  0  0  0  0  0  0
    3.9379   45.6526   54.6086 C   0  0  0  0  0  0  0  0  0  0  0  0
    4.4350   39.1929   48.0289 C   0  0  0  0  0  0  0  0  0  0  0  0
    7.0102   42.5391   50.6709 C   0  0  0  0  0  0  0  0  0  0  0  0
    8.2002   47.8046   53.5416 N   0  0  0  0  0  0  0  0  0  0  0  0
    2.8552   45.7588   50.6072 C   0  0  0  0  0  0  0  0  0  0  0  0
    3.3784   46.8926   51.3524 N   0  0  0  0  0  0  0  0  0  0  0  0
    5.2094   47.0860   52.8941 C   0  0  0  0  0  0  0  0  0  0  0  0
    2.7726   46.5937   56.5003 C   0  0  0  0  0  0  0  0  0  0  0  0
    3.9294   46.9110   53.7138 C   0  0  0  0  0  0  0  0  0  0  0  0
    2.7272   45.5877   55.4439 N   0  0  0  0  0  0  0  0  0  0  0  0
    2.7650   46.0970   49.1258 C   0  0  0  0  0  0  0  0  0  0  0  0
  1 22  4  0
  3 10  1  0
  4 22  1  0
  4 28  1  0
  5 12  4  0
  6 27  4  0
  8 13  1  0
  8 12  4  0
 10 21  1  0
 11 17  1  0
 12 24  1  0
 14  3  1  0
 15 14  1  0
 15 29  1  0
 17  9  1  0
 19  8  4  0
 22 20  4  0
 23 25  1  0
 24 11  1  0
 24 15  1  0
 25  1  4  0
 25  6  4  0
 26 10  1  0
 26 35  1  0
 27 20  4  0
 28 19  4  0
 28  5  4  0
 29  9  1  0
 30 31  1  0
 30 36  1  0
 31  7  1  0
 31 18  1  0
 32  7  1  0
 32 14  1  0
 32 34  1  0
 34 18  1  0
 34 26  1  0
 35 33  1  0
 35  2  1  0
 36 16  1  0
M  END
$$$$

     RDKit          3D

 18 19  0  0  0  0  0  0  0  0999 V2000
    9.1544   44.4497   49.2845 N   0  0  0  0  0  0  0  0  0  0  0  0
    8.1363   46.1360   52.4943 C   0  0  0  0  0  0  0  0  0  0  0  0
    5.4288   46.3441   54.9534 C   0  0  0  0  0  0  0  0  0  0  0  0
    7.5582   42.8794   48.3268 N   0  0  0  0  0  0  0  0  0  0  0  0
    5.3433   42.2078   49.2334 C   0  0  0  0  0  0  0  0  0  0  0  0
    6.1496   41.2728   47.1563 C   0  0  0  0  0  0  0  0  0  0  0  0
   10.5236   46.0557   50.4688 N   0  0  0  0  0  0  0  0  0  0  0  0
    6.9389   46.0068   53.2676 N   0  0  0  0  0  0  0  0  0  0  0  0
    9.3300   45.2908   50.3389 C   0  0  0  0  0  0  0  0  0  0  0  0
    4.9794   40.5162   47.0418 C   0  0  0  0  0  0  0  0  0  0  0  0
    6.7357   46.7267   54.4524 N   0  0  0  0  0  0  0  0  0  0  0  0
    6.3409   42.1240   48.2508 C   0  0  0  0  0  0  0  0  0  0  0  0
    7.9652   43.8146   49.3359 C   0  0  0  0  0  0  0  0  0  0  0  0
    9.3239   47.1556   52.9939 S   0  0  0  0  0  0  0  0  0  0  0  0
    4.1724   41.4525   49.1214 C   0  0  0  0  0  0  0  0  0  0  0  0
    3.9904   40.6062   48.0247 C   0  0  0  0  0  0  0  0  0  0  0  0
    7.0845   44.2766   50.6952 S   0  0  0  0  0  0  0  0  0  0  0  0
    8.2686   45.3376   51.2549 C   0  0  0  0  0  0  0  0  0  0  0  0
  1  9  4  0
  2  8  1  0
  2 14  2  0
  4 12  1  0
  4 13  1  0
  6 10  4  0
  6 12  4  0
  8 11  1  0
  9  7  1  0
  9 18  4  0
 10 16  4  0
 11  3  1  0
 12  5  4  0
 13  1  4  0
 13 17  4  0
 15  5  4  0
 16 15  4  0
 17 18  4  0
 18  2  1  0
M  END
$$$$

     RDKit          3D

 28 27  0  0  0  0  0  0  0  0999 V2000
    3.9796   46.4041   52.1526 C   0  0  0  0  0  0  0  0  0  0  0  0
    2.9381   39.6678   46.1005 O   0  0  0  0  0  0  0  0  0  0  0  0
    5.6199   41.9802   49.7937 C   0  0  0  0  0  0  0  0  0  0  0  0
    8.8756   47.1114   52.8062 N   0  0  0  0  0  0  0  0  0  0  0  0
    4.7260   40.6129   45.0312 O   0  0  0  0  0  0  0  0  0  0  0  0
    4.1134   40.4100   46.1133 C   0  0  0  0  0  0  0  0  0  0  0  0
    6.5350   45.0550   54.3410 Cl  0  0  0  0  0  0  0  0  0  0  0  0
    9.7433   45.7845   51.3766 C   0  0  0  0  0  0  0  0  0  0  0  0
    4.7974   46.0730   53.2377 C   0  0  0  0  0  0  0  0  0  0  0  0
    6.4360   46.8865   52.2097 C   0  0  0  0  0  0  0  0  0  0  0  0
    5.8199   41.7014   47.3979 C   0  0  0  0  0  0  0  0  0  0  0  0
    4.4385   41.2344   49.7821 C   0  0  0  0  0  0  0  0  0  0  0  0
    2.8324   45.6403   54.5864 C   0  0  0  0  0  0  0  0  0  0  0  0
    6.3153   42.2164   48.6000 C   0  0  0  0  0  0  0  0  0  0  0  0
    5.9918   47.7052   53.1042 N   0  0  0  0  0  0  0  0  0  0  0  0
    8.7702   48.0620   53.9012 C   0  0  0  0  0  0  0  0  0  0  0  0
    8.0624   43.5137   49.7681 N   0  0  0  0  0  0  0  0  0  0  0  0
    7.8705   46.5943   52.0652 C   0  0  0  0  0  0  0  0  0  0  0  0
    2.0146   45.9713   53.5013 C   0  0  0  0  0  0  0  0  0  0  0  0
    2.5883   46.3532   52.2843 C   0  0  0  0  0  0  0  0  0  0  0  0
    3.9476   40.7219   48.5781 C   0  0  0  0  0  0  0  0  0  0  0  0
    7.5243   42.9761   48.5914 N   0  0  0  0  0  0  0  0  0  0  0  0
    9.2331   44.1892   49.4032 N   0  0  0  0  0  0  0  0  0  0  0  0
    8.3844   45.7239   51.1199 C   0  0  0  0  0  0  0  0  0  0  0  0
   10.7343   45.0560   50.6623 N   0  0  0  0  0  0  0  0  0  0  0  0
   10.0280   46.6201   52.3907 N   0  0  0  0  0  0  0  0  0  0  0  0
    4.2237   45.6911   54.4547 C   0  0  0  0  0  0  0  0  0  0  0  0
    4.6346   40.9518   47.3785 C   0  0  0  0  0  0  0  0  0  0  0  0
  1 20  4  0
  1  9  4  0
  2  6  1  0
  3 12  4  0
  4 16  1  0
  5  6  2  0
  6 28  1  0
  8 26  4  0
  9 27  4  0
 10 15  2  0
 11 28  4  0
 11 14  4  0
 14  3  4  0
 17 23  1  0
 18 10  1  0
 18  4  4  0
 19 13  4  0
 20 19  4  0
 21 12  4  0
 22 14  1  0
 22 17  1  0
 24  8  4  0
 24 18  4  0
 25  8  1  0
 26  4  4  0
 27 13  4  0
 28 21  4  0
M  END
$$$$

     RDKit          3D

 23 25  0  0  0  0  0  0  0  0999 V2000
    6.2561   45.8518   53.1767 C   0  0  0  0  0  0  0  0  0  0  0  0
    4.2479   42.2870   48.7410 C   0  0  0  0  0  0  0  0  0  0  0  0
    5.6056   42.7321   53.6732 C   0  0  0  0  0  0  0  0  0  0  0  0
    6.9625   45.9456   49.7931 S   0  0  0  0  0  0  0  0  0  0  0  0
    5.7617   47.5113   52.8432 Cl  0  0  0  0  0  0  0  0  0  0  0  0
    9.3630   45.5872   51.1197 C   0  0  0  0  0  0  0  0  0  0  0  0
    7.4347   44.2404   49.4294 C   0  0  0  0  0  0  0  0  0  0  0  0
    4.4453   44.2311   50.1626 C   0  0  0  0  0  0  0  0  0  0  0  0
    8.6868   43.9003   49.4818 N   0  0  0  0  0  0  0  0  0  0  0  0
    7.6781   43.8437   52.7886 C   0  0  0  0  0  0  0  0  0  0  0  0
    6.5739   42.8347   52.5026 C   0  0  0  0  0  0  0  0  0  0  0  0
    2.8675   42.2649   48.9631 C   0  0  0  0  0  0  0  0  0  0  0  0
    3.0661   44.2113   50.3864 C   0  0  0  0  0  0  0  0  0  0  0  0
   10.2181   45.9223   51.9253 O   0  0  0  0  0  0  0  0  0  0  0  0
    6.4623   43.2351   49.1107 N   0  0  0  0  0  0  0  0  0  0  0  0
    9.7456   44.8324   49.8646 C   0  0  0  0  0  0  0  0  0  0  0  0
   10.9842   44.0968   50.0606 N   0  0  0  0  0  0  0  0  0  0  0  0
    5.0453   43.2754   49.3289 C   0  0  0  0  0  0  0  0  0  0  0  0
    7.9293   46.0043   51.3470 C   0  0  0  0  0  0  0  0  0  0  0  0
    5.5526   45.1577   54.3073 C   0  0  0  0  0  0  0  0  0  0  0  0
    7.2412   45.2534   52.4676 C   0  0  0  0  0  0  0  0  0  0  0  0
    4.7366   43.9758   53.8027 C   0  0  0  0  0  0  0  0  0  0  0  0
    2.2764   43.2284   49.7847 C   0  0  0  0  0  0  0  0  0  0  0  0
  1 20  1  0
  2 18  4  0
  3 22  1  0
  4 19  1  0
  5  1  1  0
  6 19  1  0
  6 14  2  0
  7  9  2  0
  7  4  1  0
  8 13  4  0
  9 16  1  0
 10 11  1  0
 11  3  1  0
 12  2  4  0
 12 23  4  0
 15 18  1  0
 15  7  1  0
 16 17  1  0
 16  6  1  0
 18  8  4  0
 19 21  1  0
 20 22  1  0
 21 10  1  0
 21  1  2  0
 23 13  4  0
M  END
$$$$

     RDKit          3D

 27 29  0  0  0  0  0  0  0  0999 V2000
    9.1593   45.3976   50.9433 C   0  0  0  0  0  0  0  0  0  0  0  0
    4.2266   48.9882   51.7791 N   0  0  0  0  0  0  0  0  0  0  0  0
    6.5319   45.0214   51.9645 C   0  0  0  0  0  0  0  0  0  0  0  0
   10.5045   45.4178   50.4703 N   0  0  0  0  0  0  0  0  0  0  0  0
    6.7749   42.4245   48.5384 C   0  0  0  0  0  0  0  0  0  0  0  0
    1.9061   43.8980   51.8719 C   0  0  0  0  0  0  0  0  0  0  0  0
    5.2665   40.2538   49.4720 C   0  0  0  0  0  0  0  0  0  0  0  0
    8.1026   44.7446   50.1356 C   0  0  0  0  0  0  0  0  0  0  0  0
    5.2982   46.8939   52.9376 C   0  0  0  0  0  0  0  0  0  0  0  0
    6.8846   44.6592   50.5922 N   0  0  0  0  0  0  0  0  0  0  0  0
   10.0074   46.9530   52.9953 Cl  0  0  0  0  0  0  0  0  0  0  0  0
    4.2297   44.3943   53.9035 C   0  0  0  0  0  0  0  0  0  0  0  0
    6.3459   40.7276   50.2228 C   0  0  0  0  0  0  0  0  0  0  0  0
    7.1022   41.8058   49.7546 C   0  0  0  0  0  0  0  0  0  0  0  0
    4.7000   48.0642   52.2903 C   0  0  0  0  0  0  0  0  0  0  0  0
    4.7817   42.9981   54.1108 C   0  0  0  0  0  0  0  0  0  0  0  0
    4.1513   44.6870   52.4673 N   0  0  0  0  0  0  0  0  0  0  0  0
    6.7902   47.1326   53.1233 C   0  0  0  0  0  0  0  0  0  0  0  0
    2.1504   46.1219   52.9743 C   0  0  0  0  0  0  0  0  0  0  0  0
    8.4008   44.3217   48.7994 N   0  0  0  0  0  0  0  0  0  0  0  0
    7.5522   43.5116   48.0224 N   0  0  0  0  0  0  0  0  0  0  0  0
    5.7043   41.9337   47.7834 C   0  0  0  0  0  0  0  0  0  0  0  0
    4.9477   40.8547   48.2508 C   0  0  0  0  0  0  0  0  0  0  0  0
    7.4518   46.0111   52.4901 N   0  0  0  0  0  0  0  0  0  0  0  0
    2.8070   45.1067   52.0418 C   0  0  0  0  0  0  0  0  0  0  0  0
    8.8200   46.0399   52.0691 C   0  0  0  0  0  0  0  0  0  0  0  0
    5.1600   45.6638   52.0237 C   0  0  0  0  0  0  0  0  0  0  0  0
  1 26  2  0
  3 10  1  0
  3 27  1  0
  3 24  1  0
  4  1  1  0
  5 14  4  0
  7 13  4  0
  8 10  2  0
  8  1  1  0
  9 18  1  0
  9 15  1  0
 12 16  1  0
 13 14  4  0
 15  2  3  0
 17 12  1  0
 19 25  1  0
 20  8  1  0
 21  5  1  0
 21 20  1  0
 22 23  4  0
 22  5  4  0
 23  7  4  0
 24 18  1  0
 25  6  1  0
 25 17  1  0
 26 24  1  0
 26 11  1  0
 27 17  1  0
 27  9  1  0
M  END
$$$$

     RDKit          3D

 18 18  0  0  0  0  0  0  0  0999 V2000
    7.7290   43.2554   49.6347 C   0  0  0  0  0  0  0  0  0  0  0  0
    9.1038   45.1729   50.0885 C   0  0  0  0  0  0  0  0  0  0  0  0
    5.8112   41.9847   49.9772 C   0  0  0  0  0  0  0  0  0  0  0  0
    7.0287   47.6276   51.6825 C   0  0  0  0  0  0  0  0  0  0  0  0
    4.6903   41.2782   49.9010 C   0  0  0  0  0  0  0  0  0  0  0  0
    4.1325   40.7243   48.6500 C   0  0  0  0  0  0  0  0  0  0  0  0
    6.2763   43.9158   50.4471 S   0  0  0  0  0  0  0  0  0  0  0  0
   10.2380   45.9659   49.7492 N   0  0  0  0  0  0  0  0  0  0  0  0
    7.7604   42.0130   49.2872 N   0  0  0  0  0  0  0  0  0  0  0  0
    7.3127   44.6046   51.7635 C   0  0  0  0  0  0  0  0  0  0  0  0
    8.8727   44.0857   49.4129 N   0  0  0  0  0  0  0  0  0  0  0  0
    4.6363   40.8301   47.4152 C   0  0  0  0  0  0  0  0  0  0  0  0
    8.2538   45.5653   51.1847 N   0  0  0  0  0  0  0  0  0  0  0  0
    8.3576   46.9197   51.7280 C   0  0  0  0  0  0  0  0  0  0  0  0
    5.8947   41.5507   47.0666 C   0  0  0  0  0  0  0  0  0  0  0  0
    6.5933   47.7956   53.0609 N   0  0  0  0  0  0  0  0  0  0  0  0
    7.7505   47.7661   53.8608 N   0  0  0  0  0  0  0  0  0  0  0  0
    8.6992   46.8884   53.1939 C   0  0  0  0  0  0  0  0  0  0  0  0
  1 11  1  0
  1  7  1  0
  2  8  1  0
  2 13  1  0
  3  5  2  0
  4 16  1  0
  6  5  1  0
  7 10  1  0
  9  1  2  0
 10 13  1  0
 11  2  2  0
 12 15  1  0
 12  6  2  3
 13 14  1  0
 14  4  1  0
 14 18  1  0
 16 17  1  0
 18 17  1  0
M  END
$$$$

     RDKit          3D

 28 31  0  0  0  0  0  0  0  0999 V2000
    8.4927   45.7884   50.5192 C   0  0  0  0  0  0  0  0  0  0  0  0
    3.8678   47.3239   52.0629 C   0  0  0  0  0  0  0  0  0  0  0  0
   10.2305   45.6471   48.9640 N   0  0  0  0  0  0  0  0  0  0  0  0
    4.9657   38.6914   50.0500 C   0  0  0  0  0  0  0  0  0  0  0  0
    0.6393   46.4577   53.8716 C   0  0  0  0  0  0  0  0  0  0  0  0
    6.6101   40.8169   49.2418 C   0  0  0  0  0  0  0  0  0  0  0  0
    1.9718   46.8841   53.4730 N   0  0  0  0  0  0  0  0  0  0  0  0
    5.4603   38.7366   48.7440 C   0  0  0  0  0  0  0  0  0  0  0  0
    7.1697   47.1905   52.5080 C   0  0  0  0  0  0  0  0  0  0  0  0
    7.7567   43.1210   49.4400 C   0  0  0  0  0  0  0  0  0  0  0  0
    6.2832   39.7939   48.3443 C   0  0  0  0  0  0  0  0  0  0  0  0
    8.9420   47.0093   50.9294 N   0  0  0  0  0  0  0  0  0  0  0  0
    5.2658   47.4737   54.1513 C   0  0  0  0  0  0  0  0  0  0  0  0
    6.7104   45.9722   52.1153 N   0  0  0  0  0  0  0  0  0  0  0  0
    4.0593   48.0341   53.4118 C   0  0  0  0  0  0  0  0  0  0  0  0
    2.0374   45.9365   51.3226 O   0  0  0  0  0  0  0  0  0  0  0  0
    2.5687   46.6458   52.2170 C   0  0  0  0  0  0  0  0  0  0  0  0
    0.6210   44.9599   54.1083 C   0  0  0  0  0  0  0  0  0  0  0  0
    6.7696   43.7659   50.6527 S   0  0  0  0  0  0  0  0  0  0  0  0
    5.2978   39.7010   50.9569 C   0  0  0  0  0  0  0  0  0  0  0  0
    6.1209   40.7570   50.5554 C   0  0  0  0  0  0  0  0  0  0  0  0
    2.7941   47.7866   54.2496 C   0  0  0  0  0  0  0  0  0  0  0  0
    6.5029   47.9294   53.5326 N   0  0  0  0  0  0  0  0  0  0  0  0
    9.1868   45.0943   49.4906 C   0  0  0  0  0  0  0  0  0  0  0  0
    8.8094   43.8657   49.0177 N   0  0  0  0  0  0  0  0  0  0  0  0
    7.4844   41.8652   48.8010 N   0  0  0  0  0  0  0  0  0  0  0  0
    7.3421   45.2686   51.1419 C   0  0  0  0  0  0  0  0  0  0  0  0
    8.3116   47.7172   51.9041 C   0  0  0  0  0  0  0  0  0  0  0  0
  1 12  4  0
  2 15  1  0
  4 20  4  0
  5 18  1  0
  6 21  4  0
  7 22  1  0
  7  5  1  0
  8  4  4  0
  9 23  1  0
 10 25  4  0
 10 19  4  0
 11  8  4  0
 11  6  4  0
 12 28  4  0
 14  9  4  0
 15 22  1  0
 15 13  1  0
 16 17  2  0
 17  2  1  0
 17  7  1  0
 19 27  4  0
 21 20  4  0
 23 13  1  0
 24  3  2  0
 24  1  4  0
 25 24  4  0
 26  6  1  0
 26 10  1  0
 27  1  4  0
 27 14  4  0
 28  9  4  0
M  END
$$$$
