
     RDKit          3D

 21 23  0  0  0  0  0  0  0  0999 V2000
  -27.4815    8.8722    7.0588 C   0  0  0  0  0  0  0  0  0  0  0  0
  -32.4218   10.2505    7.9175 C   0  0  0  0  0  0  0  0  0  0  0  0
  -25.4827    7.5060    7.1218 C   0  0  0  0  0  0  0  0  0  0  0  0
  -34.8889    6.0704    7.8871 C   0  0  0  0  0  0  0  0  0  0  0  0
  -28.2907    7.9202    7.8153 C   0  0  0  0  0  0  0  0  0  0  0  0
  -30.1100   10.3083    7.1571 N   0  0  0  0  0  0  0  0  0  0  0  0
  -33.6748    8.1650    7.9229 N   0  0  0  0  0  0  0  0  0  0  0  0
  -33.5340   11.0632    8.1373 O   0  0  0  0  0  0  0  0  0  0  0  0
  -26.5622   11.7435    5.2484 C   0  0  0  0  0  0  0  0  0  0  0  0
  -28.9286   10.7977    6.5154 C   0  0  0  0  0  0  0  0  0  0  0  0
  -31.3684   11.0393    7.1623 C   0  0  0  0  0  0  0  0  0  0  0  0
  -25.5707    9.7049    5.9990 N   0  0  0  0  0  0  0  0  0  0  0  0
  -32.8336    9.0288    7.1135 C   0  0  0  0  0  0  0  0  0  0  0  0
  -28.9124   12.0414    5.8540 C   0  0  0  0  0  0  0  0  0  0  0  0
  -27.7442   10.0519    6.5244 C   0  0  0  0  0  0  0  0  0  0  0  0
  -27.7401   12.5084    5.2274 C   0  0  0  0  0  0  0  0  0  0  0  0
  -26.1071    8.6172    6.7454 C   0  0  0  0  0  0  0  0  0  0  0  0
  -26.2354    6.4532    7.9197 C   0  0  0  0  0  0  0  0  0  0  0  0
  -34.0113    7.0193    7.0985 C   0  0  0  0  0  0  0  0  0  0  0  0
  -27.6974    6.7857    8.2153 C   0  0  0  0  0  0  0  0  0  0  0  0
  -26.5844   10.5139    5.9040 C   0  0  0  0  0  0  0  0  0  0  0  0
  1  5  1  0
  2  8  1  0
  3 18  1  0
  5 20  2  0
  6 11  1  0
  9 16  4  0
  9 21  4  0
 10  6  1  0
 11  2  1  0
 12 17  1  0
 13  7  1  0
 13  2  1  0
 14 10  4  0
 15 10  4  0
 15  1  2  0
 16 14  4  0
 17  1  1  0
 17  3  2  0
 18 20  1  0
 19  7  1  0
 19  4  1  0
 21 12  2  0
 21 15  4  0
M  END
$$$$

     RDKit          3D

 29 31  0  0  0  0  0  0  0  0999 V2000
  -33.8449    8.7200    7.5508 N   0  0  0  0  0  0  0  0  0  0  0  0
  -27.9156    8.3768    6.9741 C   0  0  0  0  0  0  0  0  0  0  0  0
  -25.8585    8.8556    6.2137 N   0  0  0  0  0  0  0  0  0  0  0  0
  -28.4994   12.0058    6.2690 C   0  0  0  0  0  0  0  0  0  0  0  0
  -31.8245    6.2938    9.6288 C   0  0  0  0  0  0  0  0  0  0  0  0
  -27.8879    9.7182    6.6416 C   0  0  0  0  0  0  0  0  0  0  0  0
  -32.7341    7.8721    5.0098 O   0  0  0  0  0  0  0  0  0  0  0  0
  -26.3314    6.5444    6.9163 C   0  0  0  0  0  0  0  0  0  0  0  0
  -32.5306    7.6023    9.2824 C   0  0  0  0  0  0  0  0  0  0  0  0
  -27.3390    5.7073    7.4307 C   0  0  0  0  0  0  0  0  0  0  0  0
  -33.4217   11.6743    8.0380 O   0  0  0  0  0  0  0  0  0  0  0  0
  -26.6109    9.9742    6.1784 C   0  0  0  0  0  0  0  0  0  0  0  0
  -26.2294   11.2428    5.7459 C   0  0  0  0  0  0  0  0  0  0  0  0
  -32.9561    9.6256    6.8404 C   0  0  0  0  0  0  0  0  0  0  0  0
  -31.9169    7.3349    5.7382 C   0  0  0  0  0  0  0  0  0  0  0  0
  -26.6555    7.8820    6.6986 C   0  0  0  0  0  0  0  0  0  0  0  0
  -31.1909   11.3716    7.2308 C   0  0  0  0  0  0  0  0  0  0  0  0
  -32.7613    5.1761    9.5236 N   0  0  0  0  0  0  0  0  0  0  0  0
  -33.6656   10.2040    5.6257 C   0  0  0  0  0  0  0  0  0  0  0  0
  -27.1942   12.2658    5.7960 C   0  0  0  0  0  0  0  0  0  0  0  0
  -28.8635   10.7129    6.7022 C   0  0  0  0  0  0  0  0  0  0  0  0
  -33.0782    7.5227    7.8583 C   0  0  0  0  0  0  0  0  0  0  0  0
  -28.9309    7.5696    7.4826 C   0  0  0  0  0  0  0  0  0  0  0  0
  -28.6273    6.2153    7.7112 C   0  0  0  0  0  0  0  0  0  0  0  0
  -32.4405   10.7125    7.7866 C   0  0  0  0  0  0  0  0  0  0  0  0
  -24.5440    8.7311    5.8266 O   0  0  0  0  0  0  0  0  0  0  0  0
  -33.9637    6.2908    7.7032 C   0  0  0  0  0  0  0  0  0  0  0  0
  -30.1421   10.4146    7.1769 O   0  0  0  0  0  0  0  0  0  0  0  0
  -33.1843    5.0488    8.1296 C   0  0  0  0  0  0  0  0  0  0  0  0
  1 22  1  0
  2 23  4  0
  3 16  4  0
  4 21  4  0
  5 18  1  0
  6 21  4  0
  6  2  4  0
  7 15  2  0
  8 10  4  0
  9  5  1  0
 10 24  4  0
 12  3  4  0
 12  6  4  0
 13 20  4  0
 13 12  4  0
 14 19  1  0
 14  1  1  0
 14 25  1  0
 16  8  4  0
 16  2  4  0
 17 25  1  0
 20  4  4  0
 21 28  1  0
 22 27  1  0
 22  9  1  0
 23 24  4  0
 25 11  1  0
 26  3  1  0
 27 29  1  0
 28 17  1  0
 29 18  1  0
M  END
$$$$

     RDKit          3D

 27 30  0  0  0  0  0  0  0  0999 V2000
  -27.8334   11.3065    7.1389 C   0  0  0  0  0  0  0  0  0  0  0  0
  -28.7042    8.5705    4.6841 C   0  0  0  0  0  0  0  0  0  0  0  0
  -34.6878    6.1763    8.8856 C   0  0  0  0  0  0  0  0  0  0  0  0
  -29.7029    9.8214    7.3113 O   0  0  0  0  0  0  0  0  0  0  0  0
  -31.2128   10.8116    8.9010 C   0  0  0  0  0  0  0  0  0  0  0  0
  -30.2725    7.1782    3.5248 C   0  0  0  0  0  0  0  0  0  0  0  0
  -29.2017    6.4965    2.9108 C   0  0  0  0  0  0  0  0  0  0  0  0
  -28.2196    9.4982    5.4882 C   0  0  0  0  0  0  0  0  0  0  0  0
  -34.5734    7.3106    9.9022 C   0  0  0  0  0  0  0  0  0  0  0  0
  -33.0771    7.6070   10.0816 C   0  0  0  0  0  0  0  0  0  0  0  0
  -30.8570   10.6056    7.4250 C   0  0  0  0  0  0  0  0  0  0  0  0
  -25.9434   10.1294    6.0481 C   0  0  0  0  0  0  0  0  0  0  0  0
  -33.2815    5.7929    8.6791 C   0  0  0  0  0  0  0  0  0  0  0  0
  -26.5039   11.1408    6.9769 C   0  0  0  0  0  0  0  0  0  0  0  0
  -27.6431    7.9013    4.0810 C   0  0  0  0  0  0  0  0  0  0  0  0
  -32.3974    6.5940    9.3628 O   0  0  0  0  0  0  0  0  0  0  0  0
  -26.4711    8.3341    4.4398 N   0  0  0  0  0  0  0  0  0  0  0  0
  -30.5826    8.9798   10.2900 O   0  0  0  0  0  0  0  0  0  0  0  0
  -30.0307    8.2302    4.4247 C   0  0  0  0  0  0  0  0  0  0  0  0
  -31.4948    9.5239    9.6130 C   0  0  0  0  0  0  0  0  0  0  0  0
  -28.8847   10.4916    6.3954 C   0  0  0  0  0  0  0  0  0  0  0  0
  -26.7911    9.3775    5.3562 C   0  0  0  0  0  0  0  0  0  0  0  0
  -32.2918   11.6886    9.0285 O   0  0  0  0  0  0  0  0  0  0  0  0
  -27.8706    6.8569    3.1860 C   0  0  0  0  0  0  0  0  0  0  0  0
  -32.9144    4.8340    7.9513 O   0  0  0  0  0  0  0  0  0  0  0  0
  -32.7770    8.9032    9.4939 N   0  0  0  0  0  0  0  0  0  0  0  0
  -32.0007    9.9775    6.6370 C   0  0  0  0  0  0  0  0  0  0  0  0
  1 21  1  0
  2 19  4  0
  5 23  1  0
  7  6  4  0
  8 21  1  0
  8  2  2  0
  9  3  1  0
 10 26  1  0
 10  9  1  0
 11 27  1  0
 11  4  1  0
 11  5  1  0
 12 14  1  0
 12 22  2  0
 13  3  1  0
 14  1  2  0
 15 24  4  0
 15  2  4  0
 16 13  1  0
 16 10  1  0
 17 15  2  0
 18 20  2  0
 19  6  4  0
 20 26  1  0
 20  5  1  0
 21  4  1  0
 22 17  1  0
 22  8  1  0
 24  7  4  0
 25 13  2  0
M  END
$$$$

     RDKit          3D

 37 40  0  0  0  0  0  0  0  0999 V2000
  -34.4841    5.3825    6.4484 C   0  0  0  0  0  0  0  0  0  0  0  0
  -27.0700   11.1707    7.4211 C   0  0  0  0  0  0  0  0  0  0  0  0
  -34.4987    5.8855    8.8789 C   0  0  0  0  0  0  0  0  0  0  0  0
  -34.7328    3.5620    8.1055 N   0  0  0  0  0  0  0  0  0  0  0  0
  -34.3178    3.0973    9.3732 N   0  0  0  0  0  0  0  0  0  0  0  0
  -33.7286    7.7818    6.2466 N   0  0  0  0  0  0  0  0  0  0  0  0
  -34.3386    2.5498    7.1149 C   0  0  0  0  0  0  0  0  0  0  0  0
  -27.2210    6.7608    8.9338 C   0  0  0  0  0  0  0  0  0  0  0  0
  -29.4588   11.1744    6.9752 C   0  0  0  0  0  0  0  0  0  0  0  0
  -26.7644    5.4473    9.4709 C   0  0  0  0  0  0  0  0  0  0  0  0
  -31.8866   11.0730    6.5037 C   0  0  0  0  0  0  0  0  0  0  0  0
  -29.0412    8.1676    8.1109 C   0  0  0  0  0  0  0  0  0  0  0  0
  -27.9926   14.5543    6.0365 C   0  0  0  0  0  0  0  0  0  0  0  0
  -26.7726    9.0218    8.2316 C   0  0  0  0  0  0  0  0  0  0  0  0
  -32.8339    2.2847    7.0979 C   0  0  0  0  0  0  0  0  0  0  0  0
  -32.7982    8.8225    5.8348 C   0  0  0  0  0  0  0  0  0  0  0  0
  -26.2066    5.6134   10.7252 F   0  0  0  0  0  0  0  0  0  0  0  0
  -32.9395    9.0938    4.3426 C   0  0  0  0  0  0  0  0  0  0  0  0
  -34.2562    5.3446   10.2796 C   0  0  0  0  0  0  0  0  0  0  0  0
  -30.6814   10.4989    6.9911 O   0  0  0  0  0  0  0  0  0  0  0  0
  -34.0793    4.8566    7.8247 C   0  0  0  0  0  0  0  0  0  0  0  0
  -25.0183   10.0312    6.9588 O   0  0  0  0  0  0  0  0  0  0  0  0
  -32.4740    6.0260    5.3471 O   0  0  0  0  0  0  0  0  0  0  0  0
  -26.9443   12.4864    6.9725 C   0  0  0  0  0  0  0  0  0  0  0  0
  -28.0944   13.1533    6.5203 C   0  0  0  0  0  0  0  0  0  0  0  0
  -34.8890    3.9675   10.3962 C   0  0  0  0  0  0  0  0  0  0  0  0
  -28.2995   10.5349    7.4209 C   0  0  0  0  0  0  0  0  0  0  0  0
  -33.5067    6.3984    5.9658 C   0  0  0  0  0  0  0  0  0  0  0  0
  -33.0267   10.0823    6.6705 C   0  0  0  0  0  0  0  0  0  0  0  0
  -34.2395   10.6911    6.3400 O   0  0  0  0  0  0  0  0  0  0  0  0
  -25.9866   10.2663    7.9363 C   0  0  0  0  0  0  0  0  0  0  0  0
  -28.5824    6.9429    8.6202 C   0  0  0  0  0  0  0  0  0  0  0  0
  -26.3020    7.8091    8.7377 C   0  0  0  0  0  0  0  0  0  0  0  0
  -29.3427   12.5026    6.5198 C   0  0  0  0  0  0  0  0  0  0  0  0
  -25.8353    4.8810    8.6175 F   0  0  0  0  0  0  0  0  0  0  0  0
  -28.1115    9.1903    7.9279 C   0  0  0  0  0  0  0  0  0  0  0  0
  -25.4052   10.7834    9.0952 O   0  0  0  0  0  0  0  0  0  0  0  0
  2 31  1  0
  2 27  4  0
  3 19  1  0
  4  5  1  0
  5 26  1  0
  6 16  1  0
  7 15  1  0
  7  4  1  0
  8 32  4  0
  8 10  1  0
  9 20  1  0
 10 17  1  0
 11 20  1  0
 11 29  1  0
 12 32  4  0
 13 25  1  0
 14 33  4  0
 14 36  4  0
 16 18  1  0
 16 29  1  0
 21  1  1  0
 21  4  1  0
 21  3  1  0
 22 31  1  0
 23 28  2  0
 24 25  4  0
 24  2  4  0
 25 34  4  0
 26 19  1  0
 27  9  4  0
 27 36  1  0
 28  6  1  0
 28  1  1  0
 29 30  1  0
 31 14  1  0
 31 37  1  0
 33  8  4  0
 34  9  4  0
 35 10  1  0
 36 12  4  0
M  END
$$$$

     RDKit          3D

 27 29  0  0  0  0  0  0  0  0999 V2000
  -35.6522    4.8080    7.5694 C   0  0  0  0  0  0  0  0  0  0  0  0
  -34.0874    6.5918    6.9875 C   0  0  0  0  0  0  0  0  0  0  0  0
  -28.7018   12.1508    5.2049 C   0  0  0  0  0  0  0  0  0  0  0  0
  -25.8528    7.6592    7.8703 C   0  0  0  0  0  0  0  0  0  0  0  0
  -26.3331    8.7385    7.1309 C   0  0  0  0  0  0  0  0  0  0  0  0
  -27.4990   12.2624    4.6037 C   0  0  0  0  0  0  0  0  0  0  0  0
  -32.3840    8.4203    6.5700 C   0  0  0  0  0  0  0  0  0  0  0  0
  -26.7237    7.0374    8.7832 C   0  0  0  0  0  0  0  0  0  0  0  0
  -25.6462    9.4052    6.2520 N   0  0  0  0  0  0  0  0  0  0  0  0
  -34.4806    6.6420    5.7894 O   0  0  0  0  0  0  0  0  0  0  0  0
  -27.8382   10.2131    6.4835 C   0  0  0  0  0  0  0  0  0  0  0  0
  -31.4162    7.6732    5.6652 C   0  0  0  0  0  0  0  0  0  0  0  0
  -34.6870    5.6433    7.9312 C   0  0  0  0  0  0  0  0  0  0  0  0
  -29.0374   11.0803    6.2335 C   0  0  0  0  0  0  0  0  0  0  0  0
  -27.6377    9.1928    7.2955 C   0  0  0  0  0  0  0  0  0  0  0  0
  -31.6391    9.4648    7.4048 C   0  0  0  0  0  0  0  0  0  0  0  0
  -32.4679    9.9443    8.4207 O   0  0  0  0  0  0  0  0  0  0  0  0
  -25.6865    6.3759   10.7953 O   0  0  0  0  0  0  0  0  0  0  0  0
  -30.0931   10.2959    5.7610 O   0  0  0  0  0  0  0  0  0  0  0  0
  -26.2381    5.8974    9.6067 C   0  0  0  0  0  0  0  0  0  0  0  0
  -25.2727    5.2311   11.4746 C   0  0  0  0  0  0  0  0  0  0  0  0
  -28.0426    7.5097    8.9505 C   0  0  0  0  0  0  0  0  0  0  0  0
  -26.5821   10.3802    5.8010 C   0  0  0  0  0  0  0  0  0  0  0  0
  -26.3787   11.3390    4.9049 C   0  0  0  0  0  0  0  0  0  0  0  0
  -28.5148    8.5987    8.2002 C   0  0  0  0  0  0  0  0  0  0  0  0
  -33.0524    7.4643    7.4445 N   0  0  0  0  0  0  0  0  0  0  0  0
  -31.1927   10.6455    6.5507 C   0  0  0  0  0  0  0  0  0  0  0  0
  2 26  1  0
  2 13  1  0
  3 14  1  0
  4  8  4  0
  5 15  4  0
  5  4  4  0
  6  3  2  0
  7 12  1  0
  7 26  1  0
  7 16  1  0
  8 20  1  0
  8 22  4  0
  9  5  2  0
 10  2  2  0
 11 14  1  0
 11 15  2  0
 13  1  2  0
 14 19  1  0
 15 25  4  0
 16 17  1  0
 18 21  1  0
 19 27  1  0
 20 18  1  0
 23  9  1  0
 23 11  1  0
 24  6  1  0
 24 23  2  0
 25 22  4  0
 27 16  1  0
M  END
$$$$

     RDKit          3D

 24 28  0  0  0  0  0  0  0  0999 V2000
  -31.3140    8.4504   11.6263 C   0  0  0  0  0  0  0  0  0  0  0  0
  -32.2854    5.6713    6.2170 O   0  0  0  0  0  0  0  0  0  0  0  0
  -31.8801   10.8063    5.0138 C   0  0  0  0  0  0  0  0  0  0  0  0
  -31.5712    6.7361    6.7634 C   0  0  0  0  0  0  0  0  0  0  0  0
  -28.4544    7.0863    8.6939 O   0  0  0  0  0  0  0  0  0  0  0  0
  -28.3021   10.4147    6.1465 C   0  0  0  0  0  0  0  0  0  0  0  0
  -31.0484    9.0168    6.3568 O   0  0  0  0  0  0  0  0  0  0  0  0
  -28.3416   12.6543    6.4367 N   0  0  0  0  0  0  0  0  0  0  0  0
  -30.5721    8.5034   10.3074 C   0  0  0  0  0  0  0  0  0  0  0  0
  -31.2943    7.7964    5.7198 C   0  0  0  0  0  0  0  0  0  0  0  0
  -29.8159    7.2880    8.4624 C   0  0  0  0  0  0  0  0  0  0  0  0
  -31.8715   12.1455    5.1765 C   0  0  0  0  0  0  0  0  0  0  0  0
  -25.6736   10.2639    7.0121 C   0  0  0  0  0  0  0  0  0  0  0  0
  -30.5456    7.1787    9.7137 N   0  0  0  0  0  0  0  0  0  0  0  0
  -29.5900   12.1645    5.9564 C   0  0  0  0  0  0  0  0  0  0  0  0
  -30.6948    9.9063    5.3371 C   0  0  0  0  0  0  0  0  0  0  0  0
  -27.6293   11.5710    6.5279 C   0  0  0  0  0  0  0  0  0  0  0  0
  -26.3614    9.0955    6.6250 C   0  0  0  0  0  0  0  0  0  0  0  0
  -30.2127    6.7906    6.0623 C   0  0  0  0  0  0  0  0  0  0  0  0
  -26.3076   11.5177    6.9664 C   0  0  0  0  0  0  0  0  0  0  0  0
  -30.6807   12.8704    5.6804 C   0  0  0  0  0  0  0  0  0  0  0  0
  -30.3231    6.2512    7.4717 C   0  0  0  0  0  0  0  0  0  0  0  0
  -29.5289   10.7372    5.7851 C   0  0  0  0  0  0  0  0  0  0  0  0
  -27.6942    9.1616    6.1866 C   0  0  0  0  0  0  0  0  0  0  0  0
  3 16  1  0
  4  2  1  0
  6 24  4  0
  8 17  2  0
  9 14  1  0
  9  1  1  0
 10  7  1  0
 10  4  1  0
 11  5  1  0
 11 14  1  0
 12  3  2  0
 13 18  4  0
 15  8  1  0
 15 23  1  0
 16  7  1  0
 17 20  4  0
 17  6  4  0
 19 22  1  0
 19 10  1  0
 19  4  1  0
 20 13  4  0
 21 12  1  0
 21 15  2  0
 22 11  1  0
 22  4  1  0
 23 16  1  0
 23  6  2  0
 24 18  4  0
M  END
$$$$

     RDKit          3D

 21 21  0  0  0  0  0  0  0  0999 V2000
  -33.6412    8.2235    6.9218 N   0  0  0  0  0  0  0  0  0  0  0  0
  -31.2069   10.9759    7.7725 C   0  0  0  0  0  0  0  0  0  0  0  0
  -28.9313   10.7797    6.7838 C   0  0  0  0  0  0  0  0  0  0  0  0
  -26.3762    6.0520    8.2841 C   0  0  0  0  0  0  0  0  0  0  0  0
  -33.5379   10.7849    8.2829 O   0  0  0  0  0  0  0  0  0  0  0  0
  -26.6732   11.8766    5.5310 C   0  0  0  0  0  0  0  0  0  0  0  0
  -26.6848   10.5237    5.8795 C   0  0  0  0  0  0  0  0  0  0  0  0
  -30.9311   11.7291    9.0645 C   0  0  0  0  0  0  0  0  0  0  0  0
  -33.8271    7.5216    5.6655 C   0  0  0  0  0  0  0  0  0  0  0  0
  -25.5420    9.7224    5.5926 N   0  0  0  0  0  0  0  0  0  0  0  0
  -34.8422    6.4138    5.8518 C   0  0  0  0  0  0  0  0  0  0  0  0
  -27.3114    6.9131    8.7028 C   0  0  0  0  0  0  0  0  0  0  0  0
  -27.8172    9.9669    6.5033 C   0  0  0  0  0  0  0  0  0  0  0  0
  -28.9033   12.1372    6.4254 C   0  0  0  0  0  0  0  0  0  0  0  0
  -27.8303    8.5218    6.8931 C   0  0  0  0  0  0  0  0  0  0  0  0
  -32.3997   10.0436    7.9561 C   0  0  0  0  0  0  0  0  0  0  0  0
  -30.0533   10.2210    7.4108 O   0  0  0  0  0  0  0  0  0  0  0  0
  -27.3313    8.3608    8.3194 C   0  0  0  0  0  0  0  0  0  0  0  0
  -27.7798   12.6822    5.8021 C   0  0  0  0  0  0  0  0  0  0  0  0
  -32.6599    9.2655    6.6762 C   0  0  0  0  0  0  0  0  0  0  0  0
  -25.2448    6.4526    7.3929 C   0  0  0  0  0  0  0  0  0  0  0  0
  2 17  1  0
  2 16  1  0
  2  8  1  0
  3 17  1  0
  4 12  2  3
  6 19  4  0
  6  7  4  0
  7 13  4  0
  9  1  1  0
  9 11  1  0
 10  7  1  0
 13  3  4  0
 13 15  1  0
 14  3  4  0
 15 18  1  0
 16  5  1  0
 18 12  1  0
 19 14  4  0
 20  1  1  0
 20 16  1  0
 21  4  1  0
M  END
$$$$

     RDKit          3D

 29 31  0  0  0  0  0  0  0  0999 V2000
  -28.0507   12.6084    5.2252 C   0  0  0  0  0  0  0  0  0  0  0  0
  -33.4573   10.3700    6.1488 O   0  0  0  0  0  0  0  0  0  0  0  0
  -27.4708   10.1211    6.3852 C   0  0  0  0  0  0  0  0  0  0  0  0
  -28.1580    7.9725    7.4810 C   0  0  0  0  0  0  0  0  0  0  0  0
  -32.4201   10.8276    6.9677 C   0  0  0  0  0  0  0  0  0  0  0  0
  -35.2818    5.0967    6.9349 O   0  0  0  0  0  0  0  0  0  0  0  0
  -34.6360    6.3185    7.0897 C   0  0  0  0  0  0  0  0  0  0  0  0
  -25.1749   10.2564    5.5310 N   0  0  0  0  0  0  0  0  0  0  0  0
  -25.8299    8.2945    6.8644 C   0  0  0  0  0  0  0  0  0  0  0  0
  -26.4790   10.8228    5.6791 C   0  0  0  0  0  0  0  0  0  0  0  0
  -33.0636    7.7727    8.4675 N   0  0  0  0  0  0  0  0  0  0  0  0
  -30.5312    9.8889    6.7972 O   0  0  0  0  0  0  0  0  0  0  0  0
  -34.1627    5.9047    9.4242 C   0  0  0  0  0  0  0  0  0  0  0  0
  -25.5330    7.0207    7.3591 C   0  0  0  0  0  0  0  0  0  0  0  0
  -27.8538    6.6969    7.9622 C   0  0  0  0  0  0  0  0  0  0  0  0
  -24.7020    9.1584    6.3726 C   0  0  0  0  0  0  0  0  0  0  0  0
  -29.0387   11.9219    5.9364 C   0  0  0  0  0  0  0  0  0  0  0  0
  -34.7124    7.1731    6.1684 O   0  0  0  0  0  0  0  0  0  0  0  0
  -32.2449    8.3252    7.4319 C   0  0  0  0  0  0  0  0  0  0  0  0
  -31.6512    9.6942    7.6249 C   0  0  0  0  0  0  0  0  0  0  0  0
  -32.0111    7.6716    6.3785 O   0  0  0  0  0  0  0  0  0  0  0  0
  -31.1645   10.9649    6.1473 C   0  0  0  0  0  0  0  0  0  0  0  0
  -27.1526    8.7839    6.9321 C   0  0  0  0  0  0  0  0  0  0  0  0
  -33.9073    6.6210    8.3379 C   0  0  0  0  0  0  0  0  0  0  0  0
  -26.5428    6.2201    7.8984 C   0  0  0  0  0  0  0  0  0  0  0  0
  -26.2334    4.9232    8.3930 N   0  0  0  0  0  0  0  0  0  0  0  0
  -28.7523   10.6800    6.5104 C   0  0  0  0  0  0  0  0  0  0  0  0
  -30.5147   12.1572    6.4721 O   0  0  0  0  0  0  0  0  0  0  0  0
  -26.7733   12.0572    5.0926 C   0  0  0  0  0  0  0  0  0  0  0  0
  1 17  4  0
  3 27  4  0
  3 23  1  0
  4 15  4  0
  5  2  1  0
  6  7  1  0
  7 24  1  0
  8 10  1  0
  8 16  1  0
  9 23  4  0
  9 14  4  0
 10  3  4  0
 12 22  1  0
 12 20  1  0
 14 25  4  0
 16  9  1  0
 17 27  4  0
 18  7  2  0
 19 11  1  0
 19 21  2  0
 20 19  1  0
 20  5  1  0
 22 28  1  0
 22  5  1  0
 23  4  4  0
 24 11  1  0
 24 13  2  0
 25 15  4  0
 25 26  1  0
 29  1  4  0
 29 10  4  0
M  END
$$$$

     RDKit          3D

 27 30  0  0  0  0  0  0  0  0999 V2000
  -25.4058    9.8050    6.0590 N   0  0  0  0  0  0  0  0  0  0  0  0
  -27.3962    6.6907    7.8874 C   0  0  0  0  0  0  0  0  0  0  0  0
  -32.2128   10.1216    7.9141 C   0  0  0  0  0  0  0  0  0  0  0  0
  -26.4041   11.9659    5.4740 C   0  0  0  0  0  0  0  0  0  0  0  0
  -26.4369   10.6809    6.0119 C   0  0  0  0  0  0  0  0  0  0  0  0
  -34.0438    5.8200    7.6623 C   0  0  0  0  0  0  0  0  0  0  0  0
  -33.2980   10.9228    8.2724 O   0  0  0  0  0  0  0  0  0  0  0  0
  -31.7944    6.9085    7.8278 C   0  0  0  0  0  0  0  0  0  0  0  0
  -29.9256   10.3299    7.1862 O   0  0  0  0  0  0  0  0  0  0  0  0
  -28.1361    5.6350    8.5184 C   0  0  0  0  0  0  0  0  0  0  0  0
  -25.9453    8.7178    6.6576 C   0  0  0  0  0  0  0  0  0  0  0  0
  -33.7924    8.2601    7.6660 N   0  0  0  0  0  0  0  0  0  0  0  0
  -27.5923   10.1659    6.5641 C   0  0  0  0  0  0  0  0  0  0  0  0
  -27.2739    8.8995    6.9791 C   0  0  0  0  0  0  0  0  0  0  0  0
  -28.7817   10.8923    6.6157 C   0  0  0  0  0  0  0  0  0  0  0  0
  -27.5880   12.7254    5.5100 C   0  0  0  0  0  0  0  0  0  0  0  0
  -26.0349    6.4986    7.5624 C   0  0  0  0  0  0  0  0  0  0  0  0
  -25.2927    7.5193    6.9394 C   0  0  0  0  0  0  0  0  0  0  0  0
  -28.7337    4.7844    9.0269 N   0  0  0  0  0  0  0  0  0  0  0  0
  -28.0343    7.9083    7.5944 C   0  0  0  0  0  0  0  0  0  0  0  0
  -31.1839   10.9887    7.2032 C   0  0  0  0  0  0  0  0  0  0  0  0
  -33.5068    4.6264    8.1476 O   0  0  0  0  0  0  0  0  0  0  0  0
  -33.2592    7.0106    8.2107 C   0  0  0  0  0  0  0  0  0  0  0  0
  -28.7680   12.1952    6.0749 C   0  0  0  0  0  0  0  0  0  0  0  0
  -32.6910    8.9700    7.0210 C   0  0  0  0  0  0  0  0  0  0  0  0
  -35.5003    5.9066    8.0802 C   0  0  0  0  0  0  0  0  0  0  0  0
  -31.5888    7.9615    6.7763 C   0  0  0  0  0  0  0  0  0  0  0  0
  1 11  4  0
  2 10  1  0
  3  7  1  0
  4 16  4  0
  4  5  4  0
  5  1  4  0
  5 13  4  0
  6 22  1  0
  6 26  1  0
  9 21  1  0
 10 19  3  0
 11 18  4  0
 11 14  4  0
 12 23  1  0
 13 14  4  0
 14 20  4  0
 15 13  4  0
 15  9  1  0
 16 24  4  0
 17  2  4  0
 18 17  4  0
 20  2  4  0
 21  3  1  0
 23  6  1  0
 23  8  1  0
 24 15  4  0
 25 12  1  0
 25  3  1  0
 27 25  1  0
 27  8  1  0
M  END
$$$$

     RDKit          3D

 37 39  0  0  0  0  0  0  0  0999 V2000
  -34.2630    4.8490    6.6780 F   0  0  0  0  0  0  0  0  0  0  0  0
  -35.4338    8.1062    6.0057 C   0  0  0  0  0  0  0  0  0  0  0  0
  -28.0019   12.0053    6.6580 C   0  0  0  0  0  0  0  0  0  0  0  0
  -29.9069    8.8231    6.9584 C   0  0  0  0  0  0  0  0  0  0  0  0
  -31.2200    8.3707    7.1198 O   0  0  0  0  0  0  0  0  0  0  0  0
  -34.2061    8.1056    5.1082 C   0  0  0  0  0  0  0  0  0  0  0  0
  -26.6727    5.6632    9.2570 C   0  0  0  0  0  0  0  0  0  0  0  0
  -25.9229   10.1424    6.2760 C   0  0  0  0  0  0  0  0  0  0  0  0
  -32.3300    9.2531    7.0089 C   0  0  0  0  0  0  0  0  0  0  0  0
  -24.8182    7.7877    6.2676 C   0  0  0  0  0  0  0  0  0  0  0  0
  -32.0378   10.5331    7.7771 C   0  0  0  0  0  0  0  0  0  0  0  0
  -30.3532   12.1460    8.2113 O   0  0  0  0  0  0  0  0  0  0  0  0
  -27.5772    8.3373    6.5378 C   0  0  0  0  0  0  0  0  0  0  0  0
  -34.0841    7.6665    6.5643 C   0  0  0  0  0  0  0  0  0  0  0  0
  -35.7392    9.4250    6.3543 O   0  0  0  0  0  0  0  0  0  0  0  0
  -26.0397    6.8105    9.7168 O   0  0  0  0  0  0  0  0  0  0  0  0
  -32.2758    6.0170    8.4503 F   0  0  0  0  0  0  0  0  0  0  0  0
  -28.2970   10.6416    6.7319 C   0  0  0  0  0  0  0  0  0  0  0  0
  -23.3089   11.3667    5.7932 O   0  0  0  0  0  0  0  0  0  0  0  0
  -26.7102   12.4426    6.3984 C   0  0  0  0  0  0  0  0  0  0  0  0
  -33.5320    8.6144    7.5404 N   0  0  0  0  0  0  0  0  0  0  0  0
  -34.2470    7.0072    4.2679 F   0  0  0  0  0  0  0  0  0  0  0  0
  -33.1023   11.4258    7.6362 O   0  0  0  0  0  0  0  0  0  0  0  0
  -25.6639   11.5368    6.2075 C   0  0  0  0  0  0  0  0  0  0  0  0
  -27.8397    5.7504    8.6862 C   0  0  0  0  0  0  0  0  0  0  0  0
  -32.7029    4.2775    7.0851 F   0  0  0  0  0  0  0  0  0  0  0  0
  -29.6197   10.2043    7.0035 C   0  0  0  0  0  0  0  0  0  0  0  0
  -29.1573    6.4249    6.7479 C   0  0  0  0  0  0  0  0  0  0  0  0
  -27.2554    9.6978    6.5203 C   0  0  0  0  0  0  0  0  0  0  0  0
  -24.8222    9.2305    6.0797 N   0  0  0  0  0  0  0  0  0  0  0  0
  -34.0956    6.1863    6.9376 C   0  0  0  0  0  0  0  0  0  0  0  0
  -29.0108    5.8445    8.1174 C   0  0  0  0  0  0  0  0  0  0  0  0
  -24.3173   12.1051    5.9445 C   0  0  0  0  0  0  0  0  0  0  0  0
  -28.8806    7.8960    6.7480 C   0  0  0  0  0  0  0  0  0  0  0  0
  -32.6945    5.6557    7.1827 C   0  0  0  0  0  0  0  0  0  0  0  0
  -30.7504   11.1925    7.2709 C   0  0  0  0  0  0  0  0  0  0  0  0
  -24.1508   13.4839    5.8693 O   0  0  0  0  0  0  0  0  0  0  0  0
  2 15  1  0
  2 14  1  0
  2  6  1  0
  3 18  4  0
  4  5  1  0
  6 22  1  0
  7 25  2  0
  8 29  4  0
  9 21  1  0
  9 11  1  0
  9  5  1  0
 10 30  1  0
 11 23  1  0
 13 34  4  0
 14 21  1  0
 14 31  1  0
 14  6  1  0
 16  7  1  0
 18 27  4  0
 19 33  2  0
 20  3  4  0
 24 20  4  0
 24  8  4  0
 25 32  2  0
 26 35  1  0
 27  4  4  0
 29 18  4  0
 29 13  4  0
 30  8  1  0
 31 35  1  0
 32 28  1  0
 33 24  1  0
 33 37  1  0
 34  4  4  0
 34 28  1  0
 35 17  1  0
 36 27  1  0
 36 12  1  0
 36 11  1  0
M  END
$$$$

     RDKit          3D

 27 29  0  0  0  0  0  0  0  0999 V2000
  -33.2789    7.8348    7.4472 N   0  0  0  0  0  0  0  0  0  0  0  0
  -31.0452    7.7782    6.5002 C   0  0  0  0  0  0  0  0  0  0  0  0
  -24.5683    9.5070    6.3319 N   0  0  0  0  0  0  0  0  0  0  0  0
  -32.9513   10.4151    8.3179 O   0  0  0  0  0  0  0  0  0  0  0  0
  -34.1104    6.9615    6.6744 C   0  0  0  0  0  0  0  0  0  0  0  0
  -31.8180    9.7614    7.8307 C   0  0  0  0  0  0  0  0  0  0  0  0
  -26.4799   12.4826    5.2625 C   0  0  0  0  0  0  0  0  0  0  0  0
  -28.5471   11.0250    6.4861 C   0  0  0  0  0  0  0  0  0  0  0  0
  -25.9103    6.6720    8.0937 C   0  0  0  0  0  0  0  0  0  0  0  0
  -36.1939    5.6088    6.3954 C   0  0  0  0  0  0  0  0  0  0  0  0
  -33.9441    6.8804    5.4255 O   0  0  0  0  0  0  0  0  0  0  0  0
  -28.7976   12.2791    5.9042 C   0  0  0  0  0  0  0  0  0  0  0  0
  -27.2323   10.4948    6.4527 C   0  0  0  0  0  0  0  0  0  0  0  0
  -25.4410    8.7497    6.9231 C   0  0  0  0  0  0  0  0  0  0  0  0
  -35.1282    6.0921    7.3655 C   0  0  0  0  0  0  0  0  0  0  0  0
  -34.4314    4.8866    7.9642 C   0  0  0  0  0  0  0  0  0  0  0  0
  -32.2335    8.6591    6.8540 C   0  0  0  0  0  0  0  0  0  0  0  0
  -30.9258   10.7883    7.1500 C   0  0  0  0  0  0  0  0  0  0  0  0
  -27.3619    7.0469    8.2561 C   0  0  0  0  0  0  0  0  0  0  0  0
  -27.7719   13.0027    5.2973 C   0  0  0  0  0  0  0  0  0  0  0  0
  -26.8496    9.1809    7.0362 C   0  0  0  0  0  0  0  0  0  0  0  0
  -27.7280    8.3821    7.6558 C   0  0  0  0  0  0  0  0  0  0  0  0
  -25.0263    7.4586    7.4801 C   0  0  0  0  0  0  0  0  0  0  0  0
  -26.2079   11.2385    5.8341 C   0  0  0  0  0  0  0  0  0  0  0  0
  -35.8162    6.8643    8.4768 C   0  0  0  0  0  0  0  0  0  0  0  0
  -24.9029   10.7349    5.7862 O   0  0  0  0  0  0  0  0  0  0  0  0
  -29.5881   10.3098    7.0894 O   0  0  0  0  0  0  0  0  0  0  0  0
  3 14  2  0
  5 15  1  0
  5  1  1  0
  6  4  1  0
  7 20  4  0
  7 24  4  0
  8 27  1  0
  9 19  1  0
 10 15  1  0
 11  5  2  0
 12  8  4  0
 13  8  4  0
 13 21  1  0
 14 21  1  0
 14 23  1  0
 15 16  1  0
 15 25  1  0
 17  2  1  0
 17  1  1  0
 17  6  1  0
 18  6  1  0
 20 12  4  0
 21 22  2  0
 22 19  1  0
 23  9  2  0
 24 13  4  0
 26 24  1  0
 26  3  1  0
 27 18  1  0
M  END
$$$$

     RDKit          3D

 24 26  0  0  0  0  0  0  0  0999 V2000
  -26.4853   10.7647    5.8496 C   0  0  0  0  0  0  0  0  0  0  0  0
  -25.2666   10.0899    5.8416 C   0  0  0  0  0  0  0  0  0  0  0  0
  -33.4711   10.9398    7.9010 O   0  0  0  0  0  0  0  0  0  0  0  0
  -26.0172    7.0207    7.6388 C   0  0  0  0  0  0  0  0  0  0  0  0
  -32.2712   10.2327    7.8283 C   0  0  0  0  0  0  0  0  0  0  0  0
  -32.5025    8.9176    7.1599 C   0  0  0  0  0  0  0  0  0  0  0  0
  -33.2035    8.0088    7.7391 N   0  0  0  0  0  0  0  0  0  0  0  0
  -27.0821    6.3811    8.2749 C   0  0  0  0  0  0  0  0  0  0  0  0
  -28.5233    8.2470    7.7383 C   0  0  0  0  0  0  0  0  0  0  0  0
  -33.4451    6.7208    7.1284 C   0  0  0  0  0  0  0  0  0  0  0  0
  -32.2324    6.1053    6.8103 O   0  0  0  0  0  0  0  0  0  0  0  0
  -26.5702   12.0097    5.2261 C   0  0  0  0  0  0  0  0  0  0  0  0
  -34.1987    5.8458    8.1077 C   0  0  0  0  0  0  0  0  0  0  0  0
  -25.1490    8.8761    6.4337 N   0  0  0  0  0  0  0  0  0  0  0  0
  -28.8988   12.1639    5.8300 C   0  0  0  0  0  0  0  0  0  0  0  0
  -27.6185   10.1874    6.4821 C   0  0  0  0  0  0  0  0  0  0  0  0
  -28.8430   10.9130    6.4673 C   0  0  0  0  0  0  0  0  0  0  0  0
  -26.1985    8.2755    7.0492 C   0  0  0  0  0  0  0  0  0  0  0  0
  -27.4660    8.9116    7.0925 C   0  0  0  0  0  0  0  0  0  0  0  0
  -34.2823    6.8762    5.8698 C   0  0  0  0  0  0  0  0  0  0  0  0
  -29.9900   10.3972    7.0822 O   0  0  0  0  0  0  0  0  0  0  0  0
  -27.7738   12.7078    5.2150 C   0  0  0  0  0  0  0  0  0  0  0  0
  -31.2565   11.0438    7.0440 C   0  0  0  0  0  0  0  0  0  0  0  0
  -28.3346    6.9936    8.3244 C   0  0  0  0  0  0  0  0  0  0  0  0
  1 16  4  0
  2  1  4  0
  2 14  4  0
  4  8  4  0
  5  3  1  0
  6  7  2  3
  6  5  1  0
  8 24  4  0
  9 24  4  0
 10  7  1  0
 10 11  1  0
 10 13  1  0
 12 22  4  0
 12  1  4  0
 14 18  4  0
 15 17  4  0
 16 17  4  0
 16 19  4  0
 17 21  1  0
 18 19  4  0
 18  4  4  0
 19  9  4  0
 20 10  1  0
 22 15  4  0
 23 21  1  0
 23  5  1  0
M  END
$$$$

     RDKit          3D

 21 23  0  0  0  0  0  0  0  0999 V2000
  -27.6194    6.6854    8.2786 C   0  0  0  0  0  0  0  0  0  0  0  0
  -28.9221   10.7773    6.4646 C   0  0  0  0  0  0  0  0  0  0  0  0
  -30.0915   10.3094    7.0714 O   0  0  0  0  0  0  0  0  0  0  0  0
  -26.5145   11.6845    5.2468 C   0  0  0  0  0  0  0  0  0  0  0  0
  -33.5280   11.0545    7.8997 O   0  0  0  0  0  0  0  0  0  0  0  0
  -27.5145    8.8517    7.0818 C   0  0  0  0  0  0  0  0  0  0  0  0
  -27.6850   12.4579    5.1803 C   0  0  0  0  0  0  0  0  0  0  0  0
  -34.7710    6.0251    7.8276 C   0  0  0  0  0  0  0  0  0  0  0  0
  -27.7447   10.0244    6.5177 C   0  0  0  0  0  0  0  0  0  0  0  0
  -26.1283    8.5820    6.8085 C   0  0  0  0  0  0  0  0  0  0  0  0
  -25.5617    9.6520    6.0592 N   0  0  0  0  0  0  0  0  0  0  0  0
  -32.3919   10.2552    7.7730 C   0  0  0  0  0  0  0  0  0  0  0  0
  -28.3986    7.9170    7.8493 C   0  0  0  0  0  0  0  0  0  0  0  0
  -28.8775   12.0105    5.7823 C   0  0  0  0  0  0  0  0  0  0  0  0
  -26.5650   10.4667    5.9221 C   0  0  0  0  0  0  0  0  0  0  0  0
  -31.3179   11.0274    7.0308 C   0  0  0  0  0  0  0  0  0  0  0  0
  -26.3157    6.4884    7.9917 C   0  0  0  0  0  0  0  0  0  0  0  0
  -32.7405    8.9888    7.0102 C   0  0  0  0  0  0  0  0  0  0  0  0
  -33.6032    8.1461    7.8192 N   0  0  0  0  0  0  0  0  0  0  0  0
  -33.8751    6.9548    7.0367 C   0  0  0  0  0  0  0  0  0  0  0  0
  -25.5210    7.4749    7.2205 C   0  0  0  0  0  0  0  0  0  0  0  0
  2  3  1  0
  4  7  4  0
  4 15  4  0
  6 13  1  0
  7 14  4  0
  9  2  4  0
  9  6  2  0
 10  6  1  0
 10 21  2  0
 11 10  1  0
 12  5  1  0
 13  1  1  0
 14  2  4  0
 15 11  2  0
 15  9  4  0
 16  3  1  0
 16 12  1  0
 17  1  2  0
 18 19  1  0
 18 12  1  0
 20 19  1  0
 20  8  1  0
 21 17  1  0
M  END
$$$$

     RDKit          3D

 29 33  0  0  0  0  0  0  0  0999 V2000
  -27.0513    9.6605    4.2007 N   0  0  0  0  0  0  0  0  0  0  0  0
  -35.2111    5.9688    7.7670 C   0  0  0  0  0  0  0  0  0  0  0  0
  -28.0844    8.6254    5.9906 C   0  0  0  0  0  0  0  0  0  0  0  0
  -32.2683   11.0123   10.4657 C   0  0  0  0  0  0  0  0  0  0  0  0
  -33.3592    7.0124    6.3851 C   0  0  0  0  0  0  0  0  0  0  0  0
  -28.3123   12.1088    7.1874 C   0  0  0  0  0  0  0  0  0  0  0  0
  -33.5925    5.7892    5.7269 O   0  0  0  0  0  0  0  0  0  0  0  0
  -26.2559    6.5271    5.8534 C   0  0  0  0  0  0  0  0  0  0  0  0
  -32.1420    6.8544    8.4401 C   0  0  0  0  0  0  0  0  0  0  0  0
  -30.4873   10.7357    8.7487 C   0  0  0  0  0  0  0  0  0  0  0  0
  -32.3073   12.4057   10.4034 O   0  0  0  0  0  0  0  0  0  0  0  0
  -27.2669   11.8912    4.9952 C   0  0  0  0  0  0  0  0  0  0  0  0
  -28.1077    9.9407    6.1563 C   0  0  0  0  0  0  0  0  0  0  0  0
  -29.1673   10.1188    8.4724 C   0  0  0  0  0  0  0  0  0  0  0  0
  -26.2978    7.3927    4.8263 C   0  0  0  0  0  0  0  0  0  0  0  0
  -35.7713    5.4927    6.4198 C   0  0  0  0  0  0  0  0  0  0  0  0
  -28.5298   10.7186    7.2524 C   0  0  0  0  0  0  0  0  0  0  0  0
  -25.1380    5.5524    5.9414 C   0  0  0  0  0  0  0  0  0  0  0  0
  -27.4839   10.5168    5.0677 C   0  0  0  0  0  0  0  0  0  0  0  0
  -33.4680    7.3456    8.7873 N   0  0  0  0  0  0  0  0  0  0  0  0
  -27.4604    8.3370    4.6624 C   0  0  0  0  0  0  0  0  0  0  0  0
  -31.9627    7.0287    6.9503 C   0  0  0  0  0  0  0  0  0  0  0  0
  -28.1286    7.5985    7.0391 C   0  0  0  0  0  0  0  0  0  0  0  0
  -30.3757    9.4887    8.1125 O   0  0  0  0  0  0  0  0  0  0  0  0
  -34.8855    5.8433    5.3015 N   0  0  0  0  0  0  0  0  0  0  0  0
  -27.2609    6.5829    6.9484 C   0  0  0  0  0  0  0  0  0  0  0  0
  -30.8568   10.5202   10.2035 C   0  0  0  0  0  0  0  0  0  0  0  0
  -34.2898    7.1798    7.5950 C   0  0  0  0  0  0  0  0  0  0  0  0
  -27.6944   12.6904    6.0654 C   0  0  0  0  0  0  0  0  0  0  0  0
  1 21  1  0
  3 23  1  0
  4 11  1  0
  5 22  1  0
  5 28  1  0
  6 17  4  0
  7  5  1  0
  7 25  1  0
  8 26  1  0
  8 18  1  0
  9 20  1  0
 10 14  1  0
 10 27  1  0
 12 29  4  0
 12 19  4  0
 13 17  4  0
 13  3  2  0
 14 17  1  0
 15  8  2  0
 16  2  1  0
 19  1  2  0
 19 13  4  0
 21  3  1  0
 21 15  1  0
 22  9  1  0
 23 26  2  0
 24 10  1  0
 24 14  1  0
 25 16  1  0
 27  4  1  0
 28 20  1  0
 28  2  1  0
 29  6  4  0
M  END
$$$$

     RDKit          3D

 27 30  0  0  0  0  0  0  0  0999 V2000
  -26.2193    8.7020    6.9010 C   0  0  0  0  0  0  0  0  0  0  0  0
  -28.6748   12.5427    6.7336 C   0  0  0  0  0  0  0  0  0  0  0  0
  -25.4754    9.7574    6.7376 N   0  0  0  0  0  0  0  0  0  0  0  0
  -33.6061   10.5882    6.9709 O   0  0  0  0  0  0  0  0  0  0  0  0
  -27.4079   13.0123    6.7702 C   0  0  0  0  0  0  0  0  0  0  0  0
  -32.3839    8.6449    7.5798 C   0  0  0  0  0  0  0  0  0  0  0  0
  -31.2014    9.9108    5.2612 C   0  0  0  0  0  0  0  0  0  0  0  0
  -25.7497    7.4103    7.1404 C   0  0  0  0  0  0  0  0  0  0  0  0
  -29.0644    5.6684    7.8055 C   0  0  0  0  0  0  0  0  0  0  0  0
  -26.4398   10.8005    6.5941 C   0  0  0  0  0  0  0  0  0  0  0  0
  -28.0808    6.6803    7.3973 C   0  0  0  0  0  0  0  0  0  0  0  0
  -32.4346    6.0469    9.3356 C   0  0  0  0  0  0  0  0  0  0  0  0
  -31.3065    5.2196    8.7423 C   0  0  0  0  0  0  0  0  0  0  0  0
  -30.0288   10.6065    7.3222 O   0  0  0  0  0  0  0  0  0  0  0  0
  -34.7583    6.1138    8.4995 C   0  0  0  0  0  0  0  0  0  0  0  0
  -30.3557    6.0833    8.1405 O   0  0  0  0  0  0  0  0  0  0  0  0
  -32.3850   10.1462    7.4839 C   0  0  0  0  0  0  0  0  0  0  0  0
  -27.5817    8.9645    6.8698 C   0  0  0  0  0  0  0  0  0  0  0  0
  -27.7640   10.2493    6.6590 C   0  0  0  0  0  0  0  0  0  0  0  0
  -33.3141    8.0213    8.2070 N   0  0  0  0  0  0  0  0  0  0  0  0
  -33.3414    6.5803    8.2382 C   0  0  0  0  0  0  0  0  0  0  0  0
  -26.2263   12.1120    6.6703 C   0  0  0  0  0  0  0  0  0  0  0  0
  -28.9974   11.0779    6.4915 C   0  0  0  0  0  0  0  0  0  0  0  0
  -28.5290    7.9813    7.1202 C   0  0  0  0  0  0  0  0  0  0  0  0
  -26.6944    6.3955    7.3906 C   0  0  0  0  0  0  0  0  0  0  0  0
  -31.2427   10.6644    6.6029 C   0  0  0  0  0  0  0  0  0  0  0  0
  -28.7315    4.4557    7.9077 O   0  0  0  0  0  0  0  0  0  0  0  0
  1 18  4  0
  1  8  4  0
  3  1  2  0
  5  2  2  0
  6 17  1  0
  8 25  4  0
  9 27  2  0
  9 16  1  0
 10  3  1  0
 10 19  1  0
 11  9  1  0
 13 12  1  0
 13 16  1  0
 17  4  1  0
 18 24  4  0
 19 23  1  0
 19 18  2  0
 20  6  2  0
 21 20  1  0
 21 15  1  0
 21 12  1  0
 22  5  1  0
 22 10  2  0
 23  2  1  0
 23 14  1  0
 24 11  4  0
 25 11  4  0
 26  7  1  0
 26 14  1  0
 26 17  1  0
M  END
$$$$

     RDKit          3D

 37 42  0  0  0  0  0  0  0  0999 V2000
  -32.7288    6.1536    7.2193 C   0  0  0  0  0  0  0  0  0  0  0  0
  -28.8185    8.9181    3.6267 C   0  0  0  0  0  0  0  0  0  0  0  0
  -32.5409    8.6079    6.7339 N   0  0  0  0  0  0  0  0  0  0  0  0
  -23.4149    9.2895    7.0523 F   0  0  0  0  0  0  0  0  0  0  0  0
  -27.6616    9.5009    7.5167 C   0  0  0  0  0  0  0  0  0  0  0  0
  -29.7701    9.5351    4.4423 C   0  0  0  0  0  0  0  0  0  0  0  0
  -35.5124    6.0779    9.5544 C   0  0  0  0  0  0  0  0  0  0  0  0
  -25.9708    6.4487   11.1382 F   0  0  0  0  0  0  0  0  0  0  0  0
  -34.2816    4.1671    9.9910 C   0  0  0  0  0  0  0  0  0  0  0  0
  -27.2065    9.1438    5.3891 C   0  0  0  0  0  0  0  0  0  0  0  0
  -31.9086    8.8288    8.0387 C   0  0  0  0  0  0  0  0  0  0  0  0
  -34.6281    7.6321    7.6541 C   0  0  0  0  0  0  0  0  0  0  0  0
  -25.1580    7.1901   10.2928 C   0  0  0  0  0  0  0  0  0  0  0  0
  -29.1901    8.4955    2.2478 C   0  0  0  0  0  0  0  0  0  0  0  0
  -29.4772    9.9232    5.7597 C   0  0  0  0  0  0  0  0  0  0  0  0
  -24.3146    8.0023   11.0306 F   0  0  0  0  0  0  0  0  0  0  0  0
  -35.5935    4.6871    9.8176 O   0  0  0  0  0  0  0  0  0  0  0  0
  -30.4590   10.7531    6.3563 O   0  0  0  0  0  0  0  0  0  0  0  0
  -29.6609    8.6289    8.9498 C   0  0  0  0  0  0  0  0  0  0  0  0
  -33.4279    7.4386    6.7324 C   0  0  0  0  0  0  0  0  0  0  0  0
  -28.2369    8.7288    8.6747 C   0  0  0  0  0  0  0  0  0  0  0  0
  -23.8823    8.4394    8.0412 C   0  0  0  0  0  0  0  0  0  0  0  0
  -30.6228   11.0911    7.7316 C   0  0  0  0  0  0  0  0  0  0  0  0
  -33.4100    4.3930    8.7330 C   0  0  0  0  0  0  0  0  0  0  0  0
  -30.5045    8.3281    7.9746 C   0  0  0  0  0  0  0  0  0  0  0  0
  -25.3705    8.5858    8.2464 C   0  0  0  0  0  0  0  0  0  0  0  0
  -27.4141    8.1035    9.5155 C   0  0  0  0  0  0  0  0  0  0  0  0
  -26.1605    9.4576    7.2921 C   0  0  0  0  0  0  0  0  0  0  0  0
  -25.9583    8.0078    9.3144 C   0  0  0  0  0  0  0  0  0  0  0  0
  -33.0329   11.0029    7.9032 O   0  0  0  0  0  0  0  0  0  0  0  0
  -26.0379    9.0061    5.9160 N   0  0  0  0  0  0  0  0  0  0  0  0
  -28.1880    9.5600    6.2770 C   0  0  0  0  0  0  0  0  0  0  0  0
  -27.5029    8.7732    4.0801 C   0  0  0  0  0  0  0  0  0  0  0  0
  -33.3643    5.8286    8.4854 N   0  0  0  0  0  0  0  0  0  0  0  0
  -28.8992    9.5638    1.3056 N   0  0  0  0  0  0  0  0  0  0  0  0
  -31.8636   10.3627    8.3264 C   0  0  0  0  0  0  0  0  0  0  0  0
  -34.7273    6.2595    8.2620 C   0  0  0  0  0  0  0  0  0  0  0  0
  2  6  4  0
  4 22  1  0
  5 21  1  0
  6 15  4  0
  7 17  1  0
 10 31  2  0
 10 32  4  0
 11  3  1  0
 11 36  1  0
 13  8  1  0
 14  2  1  0
 14 35  1  0
 15 18  1  0
 16 13  1  0
 17  9  1  0
 18 23  1  0
 19 21  1  0
 20  3  1  0
 20 12  1  0
 20  1  1  0
 21 27  2  0
 22 26  1  0
 23 36  1  0
 24  9  1  0
 25 11  1  0
 25 19  2  0
 26 29  2  0
 28 31  1  0
 28  5  1  0
 28 26  1  0
 29 27  1  0
 29 13  1  0
 32 15  4  0
 32  5  2  0
 33  2  4  0
 33 10  4  0
 34  1  1  0
 34 24  1  0
 36 30  1  0
 37 12  1  0
 37 34  1  0
 37  7  1  0
M  END
$$$$

     RDKit          3D

 27 31  0  0  0  0  0  0  0  0999 V2000
  -28.8170   10.3891    6.0106 C   0  0  0  0  0  0  0  0  0  0  0  0
  -33.1717    6.0521    7.0905 C   0  0  0  0  0  0  0  0  0  0  0  0
  -33.0317    9.9311    7.2892 C   0  0  0  0  0  0  0  0  0  0  0  0
  -33.4010    8.5381    7.5000 N   0  0  0  0  0  0  0  0  0  0  0  0
  -31.8636   10.3163    8.1916 C   0  0  0  0  0  0  0  0  0  0  0  0
  -28.6260    6.6364    8.3737 C   0  0  0  0  0  0  0  0  0  0  0  0
  -30.1340   10.1673    6.4327 O   0  0  0  0  0  0  0  0  0  0  0  0
  -26.3954    9.8390    5.9957 C   0  0  0  0  0  0  0  0  0  0  0  0
  -32.0446    7.7041    5.7891 O   0  0  0  0  0  0  0  0  0  0  0  0
  -25.8210    8.6762    6.0583 N   0  0  0  0  0  0  0  0  0  0  0  0
  -27.6384    9.9750    6.8431 C   0  0  0  0  0  0  0  0  0  0  0  0
  -32.8420    7.4654    6.7365 C   0  0  0  0  0  0  0  0  0  0  0  0
  -27.2522   11.3530    4.3490 C   0  0  0  0  0  0  0  0  0  0  0  0
  -29.9902    8.7416    8.4345 C   0  0  0  0  0  0  0  0  0  0  0  0
  -27.7555    8.5874    7.3057 C   0  0  0  0  0  0  0  0  0  0  0  0
  -30.5780    9.7177    7.6954 C   0  0  0  0  0  0  0  0  0  0  0  0
  -30.6086    8.3372    9.6583 N   0  0  0  0  0  0  0  0  0  0  0  0
  -26.4725    6.5480    7.2215 C   0  0  0  0  0  0  0  0  0  0  0  0
  -28.7888    7.9903    8.0160 C   0  0  0  0  0  0  0  0  0  0  0  0
  -26.6378    7.8969    6.9154 C   0  0  0  0  0  0  0  0  0  0  0  0
  -28.6163   11.0786    4.8736 C   0  0  0  0  0  0  0  0  0  0  0  0
  -31.7366   11.8286    8.2745 C   0  0  0  0  0  0  0  0  0  0  0  0
  -33.7936    5.3501    5.8968 C   0  0  0  0  0  0  0  0  0  0  0  0
  -34.6731    5.8390    7.0247 C   0  0  0  0  0  0  0  0  0  0  0  0
  -27.4773    5.9201    7.9774 C   0  0  0  0  0  0  0  0  0  0  0  0
  -26.1776   10.7523    4.8735 C   0  0  0  0  0  0  0  0  0  0  0  0
  -32.8105   12.3592    8.9896 O   0  0  0  0  0  0  0  0  0  0  0  0
  1 11  1  0
  1  7  1  0
  2 24  1  0
  2 23  1  0
  3  4  1  0
  5  3  1  0
  5 22  1  0
  7 16  1  0
  8 10  2  0
  9 12  2  0
 10 20  1  0
 11  8  1  0
 11 15  1  0
 12  4  1  0
 12  2  1  0
 13 21  1  0
 14 17  1  0
 15 19  4  0
 16  5  1  0
 16 14  2  0
 18 25  4  0
 19 14  1  0
 19  6  4  0
 20 15  4  0
 20 18  4  0
 21  1  2  0
 22 27  1  0
 24 23  1  0
 25  6  4  0
 26 13  2  0
 26  8  1  0
M  END
$$$$

     RDKit          3D

 24 26  0  0  0  0  0  0  0  0999 V2000
  -25.3405   10.3284    6.5468 N   0  0  0  0  0  0  0  0  0  0  0  0
  -34.9557    7.5358    5.9651 C   0  0  0  0  0  0  0  0  0  0  0  0
  -33.5517    7.6419    7.9926 N   0  0  0  0  0  0  0  0  0  0  0  0
  -31.3109   10.2642    6.4143 C   0  0  0  0  0  0  0  0  0  0  0  0
  -35.5701    6.3084    8.0019 C   0  0  0  0  0  0  0  0  0  0  0  0
  -25.1652    8.3449    8.0147 C   0  0  0  0  0  0  0  0  0  0  0  0
  -28.9737   11.0974    4.8981 C   0  0  0  0  0  0  0  0  0  0  0  0
  -26.5449   11.2472    4.7093 C   0  0  0  0  0  0  0  0  0  0  0  0
  -27.8241   11.4698    4.1757 C   0  0  0  0  0  0  0  0  0  0  0  0
  -27.3212    7.6694    9.0153 C   0  0  0  0  0  0  0  0  0  0  0  0
  -27.1840    9.7418    7.8150 C   0  0  0  0  0  0  0  0  0  0  0  0
  -27.9523    8.7803    8.6147 C   0  0  0  0  0  0  0  0  0  0  0  0
  -29.9852   10.1055    6.9017 O   0  0  0  0  0  0  0  0  0  0  0  0
  -34.4010    6.7781    7.1625 C   0  0  0  0  0  0  0  0  0  0  0  0
  -25.9137    7.4034    8.6145 C   0  0  0  0  0  0  0  0  0  0  0  0
  -31.1414    7.4845    7.7561 C   0  0  0  0  0  0  0  0  0  0  0  0
  -28.8606   10.5047    6.1727 C   0  0  0  0  0  0  0  0  0  0  0  0
  -26.4486   10.6734    5.9759 C   0  0  0  0  0  0  0  0  0  0  0  0
  -32.4039    8.1570    7.2431 C   0  0  0  0  0  0  0  0  0  0  0  0
  -27.5724   10.3331    6.6978 C   0  0  0  0  0  0  0  0  0  0  0  0
  -33.5528   10.2622    7.1751 O   0  0  0  0  0  0  0  0  0  0  0  0
  -32.3062    9.6766    7.4028 C   0  0  0  0  0  0  0  0  0  0  0  0
  -25.6882    9.7481    7.8425 C   0  0  0  0  0  0  0  0  0  0  0  0
  -33.6398    5.5498    6.6868 C   0  0  0  0  0  0  0  0  0  0  0  0
  1 23  1  0
  2 14  1  0
  4 22  1  0
  6 15  2  0
  7 17  4  0
  8  9  4  0
  8 18  4  0
  9  7  4  0
 11 12  1  0
 12 10  2  0
 13  4  1  0
 14  3  1  0
 14  5  1  0
 14 24  1  0
 15 10  1  0
 17 13  1  0
 18  1  2  0
 18 20  4  0
 19 16  1  0
 19  3  1  0
 19 22  1  0
 20 17  4  0
 20 11  2  0
 22 21  1  0
 23 11  1  0
 23  6  1  0
M  END
$$$$

     RDKit          3D

 21 22  0  0  0  0  0  0  0  0999 V2000
  -25.5258    7.4563    6.9541 C   0  0  0  0  0  0  0  0  0  0  0  0
  -32.4456   10.2286    8.0931 C   0  0  0  0  0  0  0  0  0  0  0  0
  -27.5254   12.7928    5.2357 C   0  0  0  0  0  0  0  0  0  0  0  0
  -27.9064    9.9879    6.6179 C   0  0  0  0  0  0  0  0  0  0  0  0
  -27.5447    8.7877    7.0338 C   0  0  0  0  0  0  0  0  0  0  0  0
  -26.5705   11.8636    5.3320 C   0  0  0  0  0  0  0  0  0  0  0  0
  -33.6989    8.1809    7.5834 N   0  0  0  0  0  0  0  0  0  0  0  0
  -28.9108   12.6433    5.7659 C   0  0  0  0  0  0  0  0  0  0  0  0
  -25.6833    9.7165    5.9957 N   0  0  0  0  0  0  0  0  0  0  0  0
  -26.1810    8.5779    6.6716 C   0  0  0  0  0  0  0  0  0  0  0  0
  -31.7033    8.8382    6.3345 C   0  0  0  0  0  0  0  0  0  0  0  0
  -26.2358    6.3346    7.6934 C   0  0  0  0  0  0  0  0  0  0  0  0
  -33.6025   10.8418    7.6014 O   0  0  0  0  0  0  0  0  0  0  0  0
  -27.6920    6.6214    8.0521 C   0  0  0  0  0  0  0  0  0  0  0  0
  -30.9894   10.0465    6.2167 O   0  0  0  0  0  0  0  0  0  0  0  0
  -34.9030    6.0939    7.8328 C   0  0  0  0  0  0  0  0  0  0  0  0
  -32.3779    8.7861    7.6851 C   0  0  0  0  0  0  0  0  0  0  0  0
  -31.2501   10.8031    7.3761 C   0  0  0  0  0  0  0  0  0  0  0  0
  -26.6911   10.5376    5.9655 C   0  0  0  0  0  0  0  0  0  0  0  0
  -28.3120    7.7706    7.7454 C   0  0  0  0  0  0  0  0  0  0  0  0
  -33.5553    6.7770    7.9280 C   0  0  0  0  0  0  0  0  0  0  0  0
  1 12  1  0
  2 13  1  0
  3  8  1  0
  4  5  2  0
  5 20  1  0
  6  3  2  3
  6 19  1  0
  9 10  1  0
 10  1  2  0
 10  5  1  0
 11 15  1  0
 11 17  1  0
 12 14  1  0
 15 18  1  0
 17  7  1  0
 17  2  1  0
 18  2  1  0
 19  9  2  0
 19  4  1  0
 20 14  2  0
 21  7  1  0
 21 16  1  0
M  END
$$$$

     RDKit          3D

 29 33  0  0  0  0  0  0  0  0999 V2000
  -31.8489    7.0043    8.3267 C   0  0  0  0  0  0  0  0  0  0  0  0
  -29.6145   12.8378    8.7510 C   0  0  0  0  0  0  0  0  0  0  0  0
  -28.5929   11.0597    7.3609 C   0  0  0  0  0  0  0  0  0  0  0  0
  -31.6030   10.2542    8.5230 C   0  0  0  0  0  0  0  0  0  0  0  0
  -26.4100    9.0303    5.4824 C   0  0  0  0  0  0  0  0  0  0  0  0
  -31.9482    3.5836    8.2064 O   0  0  0  0  0  0  0  0  0  0  0  0
  -32.5551    7.6801    7.2364 N   0  0  0  0  0  0  0  0  0  0  0  0
  -33.5195    5.5849    6.3702 C   0  0  0  0  0  0  0  0  0  0  0  0
  -30.6352    7.6743    8.5780 O   0  0  0  0  0  0  0  0  0  0  0  0
  -26.9678   10.0264    6.2873 C   0  0  0  0  0  0  0  0  0  0  0  0
  -33.6228    9.2463    9.3393 O   0  0  0  0  0  0  0  0  0  0  0  0
  -29.1840    9.0378    6.1039 C   0  0  0  0  0  0  0  0  0  0  0  0
  -32.6997    6.8011    6.0714 C   0  0  0  0  0  0  0  0  0  0  0  0
  -31.6474    7.8575    9.5455 C   0  0  0  0  0  0  0  0  0  0  0  0
  -28.3255   10.0224    6.5903 C   0  0  0  0  0  0  0  0  0  0  0  0
  -32.5214    4.5154    6.0740 C   0  0  0  0  0  0  0  0  0  0  0  0
  -30.3000   10.5619    8.9241 O   0  0  0  0  0  0  0  0  0  0  0  0
  -32.5850    3.4547    7.1230 C   0  0  0  0  0  0  0  0  0  0  0  0
  -31.4525    6.3630    5.5909 O   0  0  0  0  0  0  0  0  0  0  0  0
  -27.2568    8.0249    4.9856 C   0  0  0  0  0  0  0  0  0  0  0  0
  -32.2390    9.2860    9.5158 C   0  0  0  0  0  0  0  0  0  0  0  0
  -33.3983    2.3404    6.9242 O   0  0  0  0  0  0  0  0  0  0  0  0
  -26.3104   11.0145    6.8171 N   0  0  0  0  0  0  0  0  0  0  0  0
  -27.1921   12.8431    8.2242 C   0  0  0  0  0  0  0  0  0  0  0  0
  -31.2651    5.1386    6.0770 O   0  0  0  0  0  0  0  0  0  0  0  0
  -27.3249   11.7155    7.5304 C   0  0  0  0  0  0  0  0  0  0  0  0
  -28.6329    8.0299    5.2927 C   0  0  0  0  0  0  0  0  0  0  0  0
  -29.8596   11.5275    8.0154 C   0  0  0  0  0  0  0  0  0  0  0  0
  -28.4045   13.4257    8.8499 C   0  0  0  0  0  0  0  0  0  0  0  0
  1  7  1  0
  1 14  1  0
  2 28  1  0
  3 28  1  0
  3 15  2  0
  4 17  1  0
  4 21  1  0
  5 20  4  0
  6 18  2  0
  8 16  1  0
  9  1  1  0
  9 14  1  0
 10 15  4  0
 10  5  4  0
 12 27  4  0
 13  7  1  0
 13  8  1  0
 14 21  1  0
 15 12  4  0
 16 18  1  0
 18 22  1  0
 19 13  1  0
 19 25  1  0
 20 27  4  0
 21 11  1  0
 23 10  2  0
 24 29  1  0
 24 26  2  0
 25 16  1  0
 26 23  1  0
 26  3  1  0
 28 17  1  0
 29  2  2  0
M  END
$$$$

     RDKit          3D

 27 32  0  0  0  0  0  0  0  0999 V2000
  -33.6920   10.2752    6.8638 O   0  0  0  0  0  0  0  0  0  0  0  0
  -33.2761    5.3806    8.7790 C   0  0  0  0  0  0  0  0  0  0  0  0
  -27.4106    6.0902    5.8244 C   0  0  0  0  0  0  0  0  0  0  0  0
  -28.6848   12.4812    6.4234 C   0  0  0  0  0  0  0  0  0  0  0  0
  -26.3837    7.0031    6.1216 C   0  0  0  0  0  0  0  0  0  0  0  0
  -29.0616    7.8929    5.7794 C   0  0  0  0  0  0  0  0  0  0  0  0
  -25.8774    9.3059    6.5135 N   0  0  0  0  0  0  0  0  0  0  0  0
  -33.3141    6.6024    7.8813 C   0  0  0  0  0  0  0  0  0  0  0  0
  -29.2075   11.0706    6.1913 C   0  0  0  0  0  0  0  0  0  0  0  0
  -27.3902   12.7702    6.6706 C   0  0  0  0  0  0  0  0  0  0  0  0
  -32.4121   10.0214    7.3619 C   0  0  0  0  0  0  0  0  0  0  0  0
  -35.1844    6.5660    9.5882 C   0  0  0  0  0  0  0  0  0  0  0  0
  -26.3455   11.7197    6.7297 C   0  0  0  0  0  0  0  0  0  0  0  0
  -26.7167    8.3512    6.2433 C   0  0  0  0  0  0  0  0  0  0  0  0
  -32.4108    7.8186    6.0889 C   0  0  0  0  0  0  0  0  0  0  0  0
  -34.6093    5.9510    8.3271 C   0  0  0  0  0  0  0  0  0  0  0  0
  -28.0749   10.0876    6.2454 C   0  0  0  0  0  0  0  0  0  0  0  0
  -34.5048    6.0552   10.7039 O   0  0  0  0  0  0  0  0  0  0  0  0
  -32.1403    8.5189    7.4227 C   0  0  0  0  0  0  0  0  0  0  0  0
  -28.0297    8.7804    6.0756 C   0  0  0  0  0  0  0  0  0  0  0  0
  -33.2176    5.7256   10.2544 C   0  0  0  0  0  0  0  0  0  0  0  0
  -26.7128   10.4602    6.5240 C   0  0  0  0  0  0  0  0  0  0  0  0
  -30.1485   10.7567    7.1747 O   0  0  0  0  0  0  0  0  0  0  0  0
  -32.9608    7.8939    8.4544 N   0  0  0  0  0  0  0  0  0  0  0  0
  -28.7390    6.5317    5.6545 C   0  0  0  0  0  0  0  0  0  0  0  0
  -31.3758   10.7319    6.5073 C   0  0  0  0  0  0  0  0  0  0  0  0
  -32.9039    6.4375    6.4465 C   0  0  0  0  0  0  0  0  0  0  0  0
  2 16  1  0
  2 21  1  0
  3 25  4  0
  4  9  1  0
  5  3  4  0
  6 25  4  0
  7 14  2  0
  8 27  1  0
  8  2  1  0
  8 24  1  0
  8 16  1  0
  9 23  1  0
 10  4  2  0
 11  1  1  0
 12 18  1  0
 13 10  1  0
 13 22  2  0
 14 20  4  0
 14  5  4  0
 15 19  1  0
 16 12  1  0
 17  9  1  0
 17 20  2  0
 19 24  1  0
 19 11  1  0
 20  6  4  0
 21 18  1  0
 22  7  1  0
 22 17  1  0
 23 26  1  0
 26 11  1  0
 27 15  1  0
M  END
$$$$

     RDKit          3D

 37 41  0  0  0  0  0  0  0  0999 V2000
  -33.2275    5.2239    9.4382 C   0  0  0  0  0  0  0  0  0  0  0  0
  -28.2768   11.4399    6.6914 C   0  0  0  0  0  0  0  0  0  0  0  0
  -33.0502    5.0897    5.6176 C   0  0  0  0  0  0  0  0  0  0  0  0
  -33.6685    5.1246    7.9839 C   0  0  0  0  0  0  0  0  0  0  0  0
  -27.1804    5.4087    6.8288 C   0  0  0  0  0  0  0  0  0  0  0  0
  -26.7753    7.3686    5.2900 C   0  0  0  0  0  0  0  0  0  0  0  0
  -31.9704    7.6340    8.1272 C   0  0  0  0  0  0  0  0  0  0  0  0
  -27.6966   12.7154    6.7601 C   0  0  0  0  0  0  0  0  0  0  0  0
  -34.0209    5.0625   11.7256 C   0  0  0  0  0  0  0  0  0  0  0  0
  -26.5641   13.0215    5.9609 C   0  0  0  0  0  0  0  0  0  0  0  0
  -37.1028    6.6777   11.3308 C   0  0  0  0  0  0  0  0  0  0  0  0
  -32.0103    9.1534    8.0140 C   0  0  0  0  0  0  0  0  0  0  0  0
  -26.5719   10.7578    5.1038 C   0  0  0  0  0  0  0  0  0  0  0  0
  -28.1538    4.6421    7.4446 F   0  0  0  0  0  0  0  0  0  0  0  0
  -34.3436    4.7447   10.3404 C   0  0  0  0  0  0  0  0  0  0  0  0
  -32.5118    7.0471    6.9054 N   0  0  0  0  0  0  0  0  0  0  0  0
  -36.2552    5.4996   11.3764 N   0  0  0  0  0  0  0  0  0  0  0  0
  -28.9287    8.6970    6.7182 C   0  0  0  0  0  0  0  0  0  0  0  0
  -25.9783   14.3897    6.0561 C   0  0  0  0  0  0  0  0  0  0  0  0
  -26.0579    9.6491    4.6380 N   0  0  0  0  0  0  0  0  0  0  0  0
  -31.2423    4.9468    7.2528 C   0  0  0  0  0  0  0  0  0  0  0  0
  -24.6844   12.2684    4.4106 C   0  0  0  0  0  0  0  0  0  0  0  0
  -26.3320    5.9227    7.7953 F   0  0  0  0  0  0  0  0  0  0  0  0
  -34.9734    5.9063   10.9868 N   0  0  0  0  0  0  0  0  0  0  0  0
  -32.6028    5.5823    6.9760 C   0  0  0  0  0  0  0  0  0  0  0  0
  -28.7644    7.3837    6.9305 C   0  0  0  0  0  0  0  0  0  0  0  0
  -26.4557    4.5999    5.9717 F   0  0  0  0  0  0  0  0  0  0  0  0
  -29.7907    9.6210    7.5631 C   0  0  0  0  0  0  0  0  0  0  0  0
  -33.0702    9.5590   10.1258 O   0  0  0  0  0  0  0  0  0  0  0  0
  -27.8289    6.5464    6.0411 C   0  0  0  0  0  0  0  0  0  0  0  0
  -25.9614   12.0185    5.1471 C   0  0  0  0  0  0  0  0  0  0  0  0
  -31.1000    9.6445    7.0459 O   0  0  0  0  0  0  0  0  0  0  0  0
  -27.0143    8.6571    5.0441 C   0  0  0  0  0  0  0  0  0  0  0  0
  -27.7532   10.5541    5.7753 C   0  0  0  0  0  0  0  0  0  0  0  0
  -31.9289    9.8477    9.3749 C   0  0  0  0  0  0  0  0  0  0  0  0
  -29.2740   10.9822    7.5797 O   0  0  0  0  0  0  0  0  0  0  0  0
  -28.0994    9.3122    5.7089 C   0  0  0  0  0  0  0  0  0  0  0  0
  2 36  1  0
  3 25  1  0
  4  1  1  0
  5 27  1  0
  5 14  1  0
  6 30  1  0
  8  2  4  0
  9 24  1  0
 10  8  4  0
 12 35  1  0
 12  7  1  0
 13 20  2  0
 13 34  4  0
 15  1  1  0
 15  9  1  0
 15 24  1  0
 16  7  1  0
 17 11  1  0
 18 26  2  0
 19 10  1  0
 20 33  1  0
 22 31  1  0
 23  5  1  0
 24 17  1  0
 25  4  1  0
 25 16  1  0
 25 21  1  0
 28 32  1  0
 28 18  1  0
 30 26  1  0
 30  5  1  0
 31 10  4  0
 31 13  4  0
 32 12  1  0
 33  6  2  0
 33 37  1  0
 34  2  4  0
 34 37  2  0
 35 29  1  0
 36 28  1  0
 37 18  1  0
M  END
$$$$

     RDKit          3D

 27 30  0  0  0  0  0  0  0  0999 V2000
  -27.9890   12.7581    5.4555 C   0  0  0  0  0  0  0  0  0  0  0  0
  -27.8449    6.7979    7.9727 C   0  0  0  0  0  0  0  0  0  0  0  0
  -26.5561    6.2896    7.7889 C   0  0  0  0  0  0  0  0  0  0  0  0
  -34.1815    7.0229    6.9403 C   0  0  0  0  0  0  0  0  0  0  0  0
  -35.2862    6.3651    7.7376 C   0  0  0  0  0  0  0  0  0  0  0  0
  -28.7557   10.7439    6.5606 C   0  0  0  0  0  0  0  0  0  0  0  0
  -27.1948    8.8703    6.8789 C   0  0  0  0  0  0  0  0  0  0  0  0
  -33.3070   10.9557    8.3708 O   0  0  0  0  0  0  0  0  0  0  0  0
  -26.4593   10.9067    5.7740 C   0  0  0  0  0  0  0  0  0  0  0  0
  -27.4839   10.1666    6.4119 C   0  0  0  0  0  0  0  0  0  0  0  0
  -26.7190   12.1961    5.3008 C   0  0  0  0  0  0  0  0  0  0  0  0
  -32.5204    8.9535    7.3439 C   0  0  0  0  0  0  0  0  0  0  0  0
  -25.5813    7.0626    7.1525 C   0  0  0  0  0  0  0  0  0  0  0  0
  -32.1928   10.1267    8.2383 C   0  0  0  0  0  0  0  0  0  0  0  0
  -33.8895    5.7802    7.7561 C   0  0  0  0  0  0  0  0  0  0  0  0
  -29.9979   10.0736    7.2668 O   0  0  0  0  0  0  0  0  0  0  0  0
  -31.6705    8.6169    6.3486 C   0  0  0  0  0  0  0  0  0  0  0  0
  -31.0160   10.9415    7.6942 C   0  0  0  0  0  0  0  0  0  0  0  0
  -24.9213    9.1190    6.0625 C   0  0  0  0  0  0  0  0  0  0  0  0
  -25.2206   10.3683    5.6189 N   0  0  0  0  0  0  0  0  0  0  0  0
  -30.4642    9.4771    6.0808 C   0  0  0  0  0  0  0  0  0  0  0  0
  -29.0052   12.0337    6.0841 C   0  0  0  0  0  0  0  0  0  0  0  0
  -33.8397    4.6906    6.9084 F   0  0  0  0  0  0  0  0  0  0  0  0
  -25.8936    8.3467    6.6980 C   0  0  0  0  0  0  0  0  0  0  0  0
  -33.6975    8.1909    7.6599 N   0  0  0  0  0  0  0  0  0  0  0  0
  -31.8959    7.5213    5.5243 O   0  0  0  0  0  0  0  0  0  0  0  0
  -28.1643    8.0814    7.5206 C   0  0  0  0  0  0  0  0  0  0  0  0
  1 22  4  0
  3  2  4  0
  4 15  1  0
  4 25  1  0
  4  5  1  0
  7 27  4  0
  9 10  4  0
 10  6  4  0
 10  7  4  0
 11  1  4  0
 11  9  4  0
 12 25  1  0
 12 14  1  0
 13  3  4  0
 14  8  1  0
 15 23  1  0
 15  5  1  0
 16 18  1  0
 17 12  2  0
 18 14  1  0
 19 24  4  0
 20  9  4  0
 20 19  4  0
 21 17  1  0
 21 16  1  0
 22  6  4  0
 24  7  4  0
 24 13  4  0
 26 17  1  0
 27  2  4  0
M  END
$$$$

     RDKit          3D

 24 27  0  0  0  0  0  0  0  0999 V2000
  -30.3587    9.3929    7.4323 C   0  0  0  0  0  0  0  0  0  0  0  0
  -35.6331    7.8977    6.0548 C   0  0  0  0  0  0  0  0  0  0  0  0
  -27.3076    8.7634    7.1534 C   0  0  0  0  0  0  0  0  0  0  0  0
  -32.2555   10.3755    8.4867 C   0  0  0  0  0  0  0  0  0  0  0  0
  -26.0241    8.8585    6.6573 C   0  0  0  0  0  0  0  0  0  0  0  0
  -32.7062   11.5127    7.8104 O   0  0  0  0  0  0  0  0  0  0  0  0
  -27.3005    4.8583    9.2528 N   0  0  0  0  0  0  0  0  0  0  0  0
  -29.4088   10.0126    6.4544 C   0  0  0  0  0  0  0  0  0  0  0  0
  -32.5551    9.1199    7.6911 C   0  0  0  0  0  0  0  0  0  0  0  0
  -26.6081    7.1012    8.7263 C   0  0  0  0  0  0  0  0  0  0  0  0
  -26.9105    6.1376    9.8191 C   0  0  0  0  0  0  0  0  0  0  0  0
  -29.8389   10.9971    5.5408 C   0  0  0  0  0  0  0  0  0  0  0  0
  -24.9874    8.0820    7.1685 C   0  0  0  0  0  0  0  0  0  0  0  0
  -25.9541    9.7453    5.6851 O   0  0  0  0  0  0  0  0  0  0  0  0
  -28.0568    9.6575    6.4230 C   0  0  0  0  0  0  0  0  0  0  0  0
  -31.5112    8.9271    6.7750 O   0  0  0  0  0  0  0  0  0  0  0  0
  -25.2933    7.1928    8.2151 C   0  0  0  0  0  0  0  0  0  0  0  0
  -27.5779   11.2037    4.6221 C   0  0  0  0  0  0  0  0  0  0  0  0
  -33.8313    9.2148    6.9959 N   0  0  0  0  0  0  0  0  0  0  0  0
  -27.1695   10.2338    5.5341 C   0  0  0  0  0  0  0  0  0  0  0  0
  -28.9316   11.5844    4.6331 C   0  0  0  0  0  0  0  0  0  0  0  0
  -34.3086    7.8590    6.7871 C   0  0  0  0  0  0  0  0  0  0  0  0
  -27.6400    7.8922    8.1879 C   0  0  0  0  0  0  0  0  0  0  0  0
  -30.7572   10.3920    8.5047 C   0  0  0  0  0  0  0  0  0  0  0  0
  1  8  1  0
  1 24  1  0
  3 23  4  0
  4  6  1  0
  5  3  4  0
  5 13  4  0
  9 19  1  0
  9  4  1  0
 10 11  1  0
 11  7  1  0
 12  8  4  0
 13 17  4  0
 14  5  4  0
 15  8  4  0
 15  3  4  0
 16  1  1  0
 16  9  1  0
 17 10  4  0
 18 21  4  0
 18 20  4  0
 20 14  4  0
 20 15  4  0
 21 12  4  0
 22 19  1  0
 22  2  1  0
 23 10  4  0
 24  4  1  0
M  END
$$$$

     RDKit          3D

 21 23  0  0  0  0  0  0  0  0999 V2000
  -33.5321    8.1741    7.8836 N   0  0  0  0  0  0  0  0  0  0  0  0
  -33.5791    6.7754    7.5000 C   0  0  0  0  0  0  0  0  0  0  0  0
  -32.6195    8.8285    6.9629 C   0  0  0  0  0  0  0  0  0  0  0  0
  -26.4229   11.4848    5.1712 C   0  0  0  0  0  0  0  0  0  0  0  0
  -31.3724   10.9315    6.5144 C   0  0  0  0  0  0  0  0  0  0  0  0
  -30.1200   10.4064    6.9348 O   0  0  0  0  0  0  0  0  0  0  0  0
  -25.5039    9.8337    6.6210 N   0  0  0  0  0  0  0  0  0  0  0  0
  -27.6106   12.0998    4.7444 C   0  0  0  0  0  0  0  0  0  0  0  0
  -32.4916   10.2995    7.3197 C   0  0  0  0  0  0  0  0  0  0  0  0
  -28.8444   11.7508    5.3260 C   0  0  0  0  0  0  0  0  0  0  0  0
  -25.7733    7.4999    7.3957 C   0  0  0  0  0  0  0  0  0  0  0  0
  -28.0667    6.9742    8.1507 C   0  0  0  0  0  0  0  0  0  0  0  0
  -33.6891   10.9568    7.0373 O   0  0  0  0  0  0  0  0  0  0  0  0
  -28.9068   10.7867    6.3530 C   0  0  0  0  0  0  0  0  0  0  0  0
  -26.7131    6.5809    7.6764 C   0  0  0  0  0  0  0  0  0  0  0  0
  -26.4984   10.5434    6.1964 C   0  0  0  0  0  0  0  0  0  0  0  0
  -28.4605    8.2537    8.1232 C   0  0  0  0  0  0  0  0  0  0  0  0
  -34.5131    6.0286    8.4286 C   0  0  0  0  0  0  0  0  0  0  0  0
  -26.0189    8.9608    7.6745 C   0  0  0  0  0  0  0  0  0  0  0  0
  -27.7008   10.2197    6.7871 C   0  0  0  0  0  0  0  0  0  0  0  0
  -27.4868    9.2499    7.6601 C   0  0  0  0  0  0  0  0  0  0  0  0
  2  1  1  0
  2 18  1  0
  3  1  1  0
  3  9  1  0
  4  8  4  0
  4 16  4  0
  5  9  1  0
  6  5  1  0
  7 19  1  0
  8 10  4  0
  9 13  1  0
 10 14  4  0
 11 15  2  0
 14 20  4  0
 14  6  1  0
 15 12  1  0
 16  7  2  0
 16 20  4  0
 17 12  2  0
 19 21  1  0
 19 11  1  0
 20 21  2  0
 21 17  1  0
M  END
$$$$

     RDKit          3D

 29 32  0  0  0  0  0  0  0  0999 V2000
  -28.4285    8.0306    7.0160 C   0  0  0  0  0  0  0  0  0  0  0  0
  -33.3907    7.3305    8.3638 C   0  0  0  0  0  0  0  0  0  0  0  0
  -29.9062   10.2775    6.9506 O   0  0  0  0  0  0  0  0  0  0  0  0
  -33.8371    8.1241    7.2199 N   0  0  0  0  0  0  0  0  0  0  0  0
  -26.3676   12.4124    6.1222 C   0  0  0  0  0  0  0  0  0  0  0  0
  -24.9593    9.0695    6.2784 C   0  0  0  0  0  0  0  0  0  0  0  0
  -26.3044   11.0267    6.2726 C   0  0  0  0  0  0  0  0  0  0  0  0
  -33.2562   10.6746    8.2258 O   0  0  0  0  0  0  0  0  0  0  0  0
  -34.5934    6.6474    9.0066 C   0  0  0  0  0  0  0  0  0  0  0  0
  -27.5809   13.0803    6.2512 C   0  0  0  0  0  0  0  0  0  0  0  0
  -34.1902    5.4869    6.9009 F   0  0  0  0  0  0  0  0  0  0  0  0
  -27.3408    8.8681    6.7149 C   0  0  0  0  0  0  0  0  0  0  0  0
  -28.7157   10.9683    6.6815 C   0  0  0  0  0  0  0  0  0  0  0  0
  -32.1947    9.9423    7.6909 C   0  0  0  0  0  0  0  0  0  0  0  0
  -33.6597    5.8575    8.1245 C   0  0  0  0  0  0  0  0  0  0  0  0
  -28.7423   12.3645    6.5281 C   0  0  0  0  0  0  0  0  0  0  0  0
  -31.6317    8.0188    6.1038 C   0  0  0  0  0  0  0  0  0  0  0  0
  -31.6122   11.4133    5.8681 O   0  0  0  0  0  0  0  0  0  0  0  0
  -26.9941    6.0836    7.0064 C   0  0  0  0  0  0  0  0  0  0  0  0
  -25.8971    6.8941    6.7111 C   0  0  0  0  0  0  0  0  0  0  0  0
  -32.7281    8.9158    6.6738 C   0  0  0  0  0  0  0  0  0  0  0  0
  -32.8385    4.9774    8.8021 F   0  0  0  0  0  0  0  0  0  0  0  0
  -25.1014   10.4103    6.1407 N   0  0  0  0  0  0  0  0  0  0  0  0
  -27.4777   10.2754    6.5610 C   0  0  0  0  0  0  0  0  0  0  0  0
  -28.2592    6.6516    7.1602 C   0  0  0  0  0  0  0  0  0  0  0  0
  -26.0630    8.2745    6.5668 C   0  0  0  0  0  0  0  0  0  0  0  0
  -26.8146    4.6165    7.1592 C   0  0  0  0  0  0  0  0  0  0  0  0
  -31.1727   10.9137    7.0978 C   0  0  0  0  0  0  0  0  0  0  0  0
  -32.1211    7.3068    5.0089 O   0  0  0  0  0  0  0  0  0  0  0  0
  1 25  4  0
  2  4  1  0
  3 28  1  0
  5 10  4  0
  5  7  4  0
  6 26  4  0
  7 24  4  0
  9  2  1  0
 10 16  4  0
 11 15  1  0
 12  1  4  0
 13  3  1  0
 14  8  1  0
 15 22  1  0
 15  9  1  0
 15  2  1  0
 16 13  4  0
 19 25  4  0
 19 27  1  0
 20 19  4  0
 21 17  1  0
 21  4  1  0
 21 14  1  0
 23  7  4  0
 23  6  4  0
 24 13  4  0
 24 12  4  0
 26 12  4  0
 26 20  4  0
 28 18  1  0
 28 14  1  0
 29 17  1  0
M  END
$$$$

     RDKit          3D

 27 30  0  0  0  0  0  0  0  0999 V2000
  -33.4737    5.9504    6.3002 C   0  0  0  0  0  0  0  0  0  0  0  0
  -32.2592    9.9984    7.5052 C   0  0  0  0  0  0  0  0  0  0  0  0
  -27.5636    9.8820    6.5769 C   0  0  0  0  0  0  0  0  0  0  0  0
  -26.3450   10.4092    6.1455 C   0  0  0  0  0  0  0  0  0  0  0  0
  -25.2483    8.2333    8.5519 C   0  0  0  0  0  0  0  0  0  0  0  0
  -34.4846    5.4394    9.1006 C   0  0  0  0  0  0  0  0  0  0  0  0
  -27.3072    8.9814    7.5140 C   0  0  0  0  0  0  0  0  0  0  0  0
  -30.3230    8.3917    6.2008 C   0  0  0  0  0  0  0  0  0  0  0  0
  -35.1496    7.7770    6.1542 C   0  0  0  0  0  0  0  0  0  0  0  0
  -27.5052   11.9118    4.6749 C   0  0  0  0  0  0  0  0  0  0  0  0
  -30.0463    9.8023    6.4708 N   0  0  0  0  0  0  0  0  0  0  0  0
  -31.2008   10.6815    6.6441 C   0  0  0  0  0  0  0  0  0  0  0  0
  -34.2818    6.9815    7.0905 C   0  0  0  0  0  0  0  0  0  0  0  0
  -28.7863   10.3556    6.0688 C   0  0  0  0  0  0  0  0  0  0  0  0
  -31.1742    7.8748    7.1933 O   0  0  0  0  0  0  0  0  0  0  0  0
  -33.4119    7.8680    7.8823 N   0  0  0  0  0  0  0  0  0  0  0  0
  -35.2246    6.2431    8.0394 C   0  0  0  0  0  0  0  0  0  0  0  0
  -28.1612    8.2373    8.4380 C   0  0  0  0  0  0  0  0  0  0  0  0
  -27.5615    7.4618    9.3531 C   0  0  0  0  0  0  0  0  0  0  0  0
  -28.7363   11.3862    5.1097 C   0  0  0  0  0  0  0  0  0  0  0  0
  -26.2959   11.4235    5.1920 C   0  0  0  0  0  0  0  0  0  0  0  0
  -34.6777    8.3897    5.2086 O   0  0  0  0  0  0  0  0  0  0  0  0
  -32.4066    8.5401    7.0591 C   0  0  0  0  0  0  0  0  0  0  0  0
  -25.8786    8.9660    7.6391 C   0  0  0  0  0  0  0  0  0  0  0  0
  -26.0463    7.2967    9.4430 C   0  0  0  0  0  0  0  0  0  0  0  0
  -25.3041    9.9067    6.7400 N   0  0  0  0  0  0  0  0  0  0  0  0
  -33.4727   10.6714    7.3611 O   0  0  0  0  0  0  0  0  0  0  0  0
  2 27  1  0
  3  7  2  0
  4 26  2  0
  4  3  4  0
  5 25  1  0
  7 18  1  0
  8 15  1  0
  9 13  1  0
 10 20  4  0
 11  8  1  0
 11 12  1  0
 12  2  1  0
 13 16  1  0
 13 17  1  0
 13  1  1  0
 14  3  4  0
 14 11  1  0
 17  6  1  0
 18 19  2  0
 20 14  4  0
 21 10  4  0
 21  4  4  0
 22  9  2  0
 23 16  1  0
 23 15  1  0
 23  2  1  0
 24  7  1  0
 24  5  2  0
 25 19  1  0
 26 24  1  0
M  END
$$$$

     RDKit          3D

 37 41  0  0  0  0  0  0  0  0999 V2000
  -29.6897   10.8401    4.7941 C   0  0  0  0  0  0  0  0  0  0  0  0
  -28.9229   10.1208    5.8369 C   0  0  0  0  0  0  0  0  0  0  0  0
  -26.5929   12.3567    1.5102 O   0  0  0  0  0  0  0  0  0  0  0  0
  -24.7631    9.6146    5.1625 C   0  0  0  0  0  0  0  0  0  0  0  0
  -34.0336    3.7830   13.0519 O   0  0  0  0  0  0  0  0  0  0  0  0
  -33.8927    4.2130   11.8780 C   0  0  0  0  0  0  0  0  0  0  0  0
  -29.6180    9.5509    6.9065 O   0  0  0  0  0  0  0  0  0  0  0  0
  -33.4529    5.4267    9.3357 C   0  0  0  0  0  0  0  0  0  0  0  0
  -32.4472    4.3851    9.8097 C   0  0  0  0  0  0  0  0  0  0  0  0
  -33.4145    8.0033    7.5832 N   0  0  0  0  0  0  0  0  0  0  0  0
  -24.5420    8.3888    7.3792 C   0  0  0  0  0  0  0  0  0  0  0  0
  -25.7790    9.7901    4.1261 N   0  0  0  0  0  0  0  0  0  0  0  0
  -29.1099   11.3446    3.7087 C   0  0  0  0  0  0  0  0  0  0  0  0
  -33.5956    7.3509    6.2096 C   0  0  0  0  0  0  0  0  0  0  0  0
  -34.8568    4.9421    9.6884 C   0  0  0  0  0  0  0  0  0  0  0  0
  -27.1168   11.7982    2.4832 C   0  0  0  0  0  0  0  0  0  0  0  0
  -30.9897    9.6272    6.9991 N   0  0  0  0  0  0  0  0  0  0  0  0
  -33.3894    7.3198    4.9693 O   0  0  0  0  0  0  0  0  0  0  0  0
  -26.4394    8.0952    8.8506 C   0  0  0  0  0  0  0  0  0  0  0  0
  -23.2153    8.2206    7.1562 F   0  0  0  0  0  0  0  0  0  0  0  0
  -32.8353    9.9830   10.7583 C   0  0  0  0  0  0  0  0  0  0  0  0
  -27.2515    8.7685    7.9389 C   0  0  0  0  0  0  0  0  0  0  0  0
  -33.3134    5.6303    7.8354 C   0  0  0  0  0  0  0  0  0  0  0  0
  -32.6154    4.1211   11.2370 N   0  0  0  0  0  0  0  0  0  0  0  0
  -25.3605    9.0421    6.4357 C   0  0  0  0  0  0  0  0  0  0  0  0
  -33.2583    8.8076    9.8951 C   0  0  0  0  0  0  0  0  0  0  0  0
  -25.0862    7.9116    8.5730 C   0  0  0  0  0  0  0  0  0  0  0  0
  -34.6414    8.6527    9.9991 O   0  0  0  0  0  0  0  0  0  0  0  0
  -32.8657    9.0462    8.4376 C   0  0  0  0  0  0  0  0  0  0  0  0
  -27.6658   11.2095    3.5112 C   0  0  0  0  0  0  0  0  0  0  0  0
  -34.1334    6.8263    7.3754 C   0  0  0  0  0  0  0  0  0  0  0  0
  -26.7309    9.2595    6.7301 C   0  0  0  0  0  0  0  0  0  0  0  0
  -26.8027   10.6990    4.6336 C   0  0  0  0  0  0  0  0  0  0  0  0
  -27.5726   10.0117    5.7495 C   0  0  0  0  0  0  0  0  0  0  0  0
  -23.7651    8.7940    4.6668 F   0  0  0  0  0  0  0  0  0  0  0  0
  -31.3511    9.0674    8.2907 C   0  0  0  0  0  0  0  0  0  0  0  0
  -35.0357    4.9117   11.2035 C   0  0  0  0  0  0  0  0  0  0  0  0
  1  2  1  0
  2  7  1  0
  4 35  1  0
  4 25  1  0
  6  5  2  0
  8 23  1  0
  8 15  1  0
  9  8  1  0
  9 24  1  0
 11 27  4  0
 12  4  1  0
 13  1  2  0
 14 31  1  0
 14 10  1  0
 15 37  1  0
 16  3  2  0
 17 36  1  0
 17  7  1  0
 18 14  2  0
 20 11  1  0
 22 19  4  0
 24  6  1  0
 25 32  4  0
 25 11  4  0
 26 21  1  0
 26 28  1  0
 27 19  4  0
 29 36  1  0
 29 10  1  0
 29 26  1  0
 30 13  1  0
 30 33  1  0
 30 16  2  0
 31 10  1  0
 31 23  1  0
 32 22  4  0
 33 12  1  0
 33 34  1  0
 34  2  2  0
 34 32  1  0
 37  6  1  0
M  END
$$$$

     RDKit          3D

 27 31  0  0  0  0  0  0  0  0999 V2000
  -34.0966    6.7573    8.6425 C   0  0  0  0  0  0  0  0  0  0  0  0
  -32.7765    7.3747    8.2162 C   0  0  0  0  0  0  0  0  0  0  0  0
  -27.2500    7.5642    5.3083 C   0  0  0  0  0  0  0  0  0  0  0  0
  -30.8304    7.8063    9.6527 O   0  0  0  0  0  0  0  0  0  0  0  0
  -32.9069    8.8365    8.2983 N   0  0  0  0  0  0  0  0  0  0  0  0
  -28.5713   11.8645    5.7840 C   0  0  0  0  0  0  0  0  0  0  0  0
  -27.0320    6.1879    5.3472 C   0  0  0  0  0  0  0  0  0  0  0  0
  -28.2694    9.4729    5.7572 C   0  0  0  0  0  0  0  0  0  0  0  0
  -29.0504   10.5915    6.1719 C   0  0  0  0  0  0  0  0  0  0  0  0
  -29.2147    7.3723    6.7021 C   0  0  0  0  0  0  0  0  0  0  0  0
  -31.7669    7.2224   10.5232 C   0  0  0  0  0  0  0  0  0  0  0  0
  -26.4890    8.4130    4.6992 N   0  0  0  0  0  0  0  0  0  0  0  0
  -27.1298    9.6504    4.9864 C   0  0  0  0  0  0  0  0  0  0  0  0
  -30.8752    9.3758    7.2078 O   0  0  0  0  0  0  0  0  0  0  0  0
  -27.9295    5.3948    6.0778 C   0  0  0  0  0  0  0  0  0  0  0  0
  -26.6720   10.9062    4.6072 C   0  0  0  0  0  0  0  0  0  0  0  0
  -32.0565    9.7082    7.8408 C   0  0  0  0  0  0  0  0  0  0  0  0
  -30.2522   12.4058    8.3353 O   0  0  0  0  0  0  0  0  0  0  0  0
  -33.3502   11.5574    7.1705 O   0  0  0  0  0  0  0  0  0  0  0  0
  -31.6500    6.7979    9.1051 C   0  0  0  0  0  0  0  0  0  0  0  0
  -29.0132    5.9841    6.7541 C   0  0  0  0  0  0  0  0  0  0  0  0
  -30.2083   10.5357    6.8693 C   0  0  0  0  0  0  0  0  0  0  0  0
  -30.9755   11.7466    7.3401 C   0  0  0  0  0  0  0  0  0  0  0  0
  -28.3269    8.1526    5.9622 C   0  0  0  0  0  0  0  0  0  0  0  0
  -32.5370    6.9461    6.7773 C   0  0  0  0  0  0  0  0  0  0  0  0
  -27.4054   12.0225    5.0172 C   0  0  0  0  0  0  0  0  0  0  0  0
  -32.2582   11.1756    7.9501 C   0  0  0  0  0  0  0  0  0  0  0  0
  2  5  1  0
  2  1  1  0
  3 24  4  0
  3  7  4  0
  4 20  1  0
  4 11  1  0
  5 17  2  3
  6  9  4  0
  7 15  4  0
  8 24  2  0
  9  8  4  0
  9 22  2  3
 10 21  4  0
 12  3  2  0
 13 12  1  0
 13  8  4  0
 14 17  1  0
 15 21  4  0
 16 26  4  0
 16 13  4  0
 17 27  1  0
 20  2  1  0
 20 11  1  0
 22 14  1  0
 23 22  1  0
 23 18  1  0
 23 27  1  0
 24 10  4  0
 25  2  1  0
 26  6  4  0
 27 19  1  0
M  END
$$$$

     RDKit          3D

 24 26  0  0  0  0  0  0  0  0999 V2000
  -27.1822    9.3097    7.9309 C   0  0  0  0  0  0  0  0  0  0  0  0
  -27.7068    7.2082    8.9617 C   0  0  0  0  0  0  0  0  0  0  0  0
  -25.7079    9.1010    8.0760 C   0  0  0  0  0  0  0  0  0  0  0  0
  -29.8159   10.1245    6.8299 O   0  0  0  0  0  0  0  0  0  0  0  0
  -28.1422    8.4202    8.5952 C   0  0  0  0  0  0  0  0  0  0  0  0
  -33.7598    8.1383    7.4674 N   0  0  0  0  0  0  0  0  0  0  0  0
  -33.3369   10.7747    6.8377 O   0  0  0  0  0  0  0  0  0  0  0  0
  -31.3893    7.6423    7.3712 C   0  0  0  0  0  0  0  0  0  0  0  0
  -25.1714    9.7044    6.8575 N   0  0  0  0  0  0  0  0  0  0  0  0
  -26.3193    6.7694    8.6542 C   0  0  0  0  0  0  0  0  0  0  0  0
  -31.0595   10.4992    6.2527 C   0  0  0  0  0  0  0  0  0  0  0  0
  -26.0725   10.8967    5.0033 C   0  0  0  0  0  0  0  0  0  0  0  0
  -26.1674   10.2383    6.2282 C   0  0  0  0  0  0  0  0  0  0  0  0
  -25.3991    7.6297    8.1855 C   0  0  0  0  0  0  0  0  0  0  0  0
  -32.5053    8.5261    6.8365 C   0  0  0  0  0  0  0  0  0  0  0  0
  -35.3015    8.8852    5.0958 O   0  0  0  0  0  0  0  0  0  0  0  0
  -27.2574   11.3317    4.3888 C   0  0  0  0  0  0  0  0  0  0  0  0
  -32.2085   10.0014    7.1160 C   0  0  0  0  0  0  0  0  0  0  0  0
  -34.8482    5.9784    7.3363 C   0  0  0  0  0  0  0  0  0  0  0  0
  -28.5061   11.0833    4.9896 C   0  0  0  0  0  0  0  0  0  0  0  0
  -28.5876   10.4034    6.2224 C   0  0  0  0  0  0  0  0  0  0  0  0
  -35.6730    7.8749    5.9830 C   0  0  0  0  0  0  0  0  0  0  0  0
  -27.3862   10.0179    6.8330 C   0  0  0  0  0  0  0  0  0  0  0  0
  -34.4361    7.2162    6.5671 C   0  0  0  0  0  0  0  0  0  0  0  0
  1  5  1  0
  3 14  1  0
  3  1  1  0
  4 11  1  0
  5  2  2  0
  9  3  1  0
 10  2  1  0
 11 18  1  0
 12 17  4  0
 12 13  4  0
 13  9  2  0
 13 23  4  0
 14 10  2  0
 15  8  1  0
 15  6  1  0
 15 18  1  0
 16 22  1  0
 17 20  4  0
 18  7  1  0
 20 21  4  0
 21  4  1  0
 22 24  1  0
 23 21  4  0
 23  1  2  0
 24  6  1  0
 24 19  1  0
M  END
$$$$

     RDKit          3D

 21 23  0  0  0  0  0  0  0  0999 V2000
  -27.8499   10.2635    6.8352 C   0  0  0  0  0  0  0  0  0  0  0  0
  -26.8136    7.3449    9.4819 C   0  0  0  0  0  0  0  0  0  0  0  0
  -32.6819    8.9030    6.3108 C   0  0  0  0  0  0  0  0  0  0  0  0
  -30.1101   10.3462    6.1254 O   0  0  0  0  0  0  0  0  0  0  0  0
  -28.6631   12.0738    5.3531 C   0  0  0  0  0  0  0  0  0  0  0  0
  -34.6863    5.9566    5.6759 C   0  0  0  0  0  0  0  0  0  0  0  0
  -28.1188    7.8665    9.5955 C   0  0  0  0  0  0  0  0  0  0  0  0
  -34.0740    7.2912    5.3065 C   0  0  0  0  0  0  0  0  0  0  0  0
  -26.5942   10.3141    6.1339 C   0  0  0  0  0  0  0  0  0  0  0  0
  -32.7043    9.7186    8.5268 O   0  0  0  0  0  0  0  0  0  0  0  0
  -31.8678    9.4189    7.4516 C   0  0  0  0  0  0  0  0  0  0  0  0
  -26.3680   11.1608    5.1360 C   0  0  0  0  0  0  0  0  0  0  0  0
  -28.5640    8.8763    8.7265 C   0  0  0  0  0  0  0  0  0  0  0  0
  -25.9321    7.8251    8.4977 C   0  0  0  0  0  0  0  0  0  0  0  0
  -25.6849    9.3682    6.6894 N   0  0  0  0  0  0  0  0  0  0  0  0
  -26.3851    8.8271    7.6412 C   0  0  0  0  0  0  0  0  0  0  0  0
  -31.1210   10.6724    7.0336 C   0  0  0  0  0  0  0  0  0  0  0  0
  -33.2932    7.7812    6.4077 N   0  0  0  0  0  0  0  0  0  0  0  0
  -27.4622   12.0791    4.7377 C   0  0  0  0  0  0  0  0  0  0  0  0
  -27.6747    9.3369    7.7575 C   0  0  0  0  0  0  0  0  0  0  0  0
  -29.0218   11.1384    6.4979 C   0  0  0  0  0  0  0  0  0  0  0  0
  1 21  1  0
  1 20  2  0
  2  7  4  0
  3 18  2  3
  3 11  1  0
  4 17  1  0
  5 21  1  0
  8 18  1  0
  8  6  1  0
  9 15  1  0
  9  1  1  0
 11 10  1  0
 12 19  1  0
 12  9  2  0
 13  7  4  0
 14  2  4  0
 15 16  2  0
 16 20  4  0
 16 14  4  0
 17 11  1  0
 19  5  2  0
 20 13  4  0
 21  4  1  0
M  END
$$$$

     RDKit          3D

 29 33  0  0  0  0  0  0  0  0999 V2000
  -30.3041    5.9187    9.3514 N   0  0  0  0  0  0  0  0  0  0  0  0
  -28.5057   10.1123    6.2998 C   0  0  0  0  0  0  0  0  0  0  0  0
  -26.9199   11.0450    4.6845 C   0  0  0  0  0  0  0  0  0  0  0  0
  -34.3999   10.0695    5.3779 C   0  0  0  0  0  0  0  0  0  0  0  0
  -32.6205    7.1371    6.6199 C   0  0  0  0  0  0  0  0  0  0  0  0
  -32.1964   10.1070    6.7771 C   0  0  0  0  0  0  0  0  0  0  0  0
  -26.5154    6.5819    9.1364 C   0  0  0  0  0  0  0  0  0  0  0  0
  -27.9637    6.9343    9.1882 C   0  0  0  0  0  0  0  0  0  0  0  0
  -29.8107    9.8499    6.7267 O   0  0  0  0  0  0  0  0  0  0  0  0
  -33.0642    5.8089    6.0358 C   0  0  0  0  0  0  0  0  0  0  0  0
  -25.2209    9.5406    7.5018 N   0  0  0  0  0  0  0  0  0  0  0  0
  -30.9457   10.1164    5.9163 C   0  0  0  0  0  0  0  0  0  0  0  0
  -25.8403   10.6647    5.4969 C   0  0  0  0  0  0  0  0  0  0  0  0
  -31.1613    5.1811   10.0984 O   0  0  0  0  0  0  0  0  0  0  0  0
  -27.4100    9.7622    7.0999 C   0  0  0  0  0  0  0  0  0  0  0  0
  -33.7578    8.0462    6.6585 N   0  0  0  0  0  0  0  0  0  0  0  0
  -33.3505    9.3382    6.1171 C   0  0  0  0  0  0  0  0  0  0  0  0
  -25.5735    7.4843    8.8202 C   0  0  0  0  0  0  0  0  0  0  0  0
  -26.1159   10.0239    6.7035 C   0  0  0  0  0  0  0  0  0  0  0  0
  -25.9326    8.9317    8.6234 C   0  0  0  0  0  0  0  0  0  0  0  0
  -28.2423   10.7696    5.0802 C   0  0  0  0  0  0  0  0  0  0  0  0
  -32.0914    6.9370    8.0308 C   0  0  0  0  0  0  0  0  0  0  0  0
  -28.9185    5.9431    9.7290 C   0  0  0  0  0  0  0  0  0  0  0  0
  -33.3713    9.3683    4.7104 O   0  0  0  0  0  0  0  0  0  0  0  0
  -28.3834    8.1171    8.7065 C   0  0  0  0  0  0  0  0  0  0  0  0
  -27.3676    9.0620    8.2210 C   0  0  0  0  0  0  0  0  0  0  0  0
  -28.4979    5.0911   10.5580 O   0  0  0  0  0  0  0  0  0  0  0  0
  -32.5692   11.4146    7.0937 O   0  0  0  0  0  0  0  0  0  0  0  0
  -30.7124    6.2974    8.0039 C   0  0  0  0  0  0  0  0  0  0  0  0
  1 14  1  0
  2  9  1  0
  3 13  4  0
  3 21  4  0
  4 24  1  0
  5 16  1  0
  5 10  1  0
  5 22  1  0
  6 28  1  0
  7  8  1  0
  8 23  1  0
  9 12  1  0
 11 20  1  0
 12  6  1  0
 13 19  4  0
 15  2  4  0
 15 26  2  0
 17  4  1  0
 17 16  1  0
 17  6  1  0
 18  7  2  0
 19 11  2  0
 19 15  4  0
 20 26  1  0
 20 18  1  0
 21  2  4  0
 23  1  1  0
 23 27  2  0
 24 17  1  0
 25  8  2  0
 26 25  1  0
 29 22  1  0
 29  1  1  0
M  END
$$$$

     RDKit          3D

 27 29  0  0  0  0  0  0  0  0999 V2000
  -32.5166    8.9620    7.5859 C   0  0  0  0  0  0  0  0  0  0  0  0
  -26.0102    7.1501    7.5674 C   0  0  0  0  0  0  0  0  0  0  0  0
  -29.1563   12.1637    5.6338 C   0  0  0  0  0  0  0  0  0  0  0  0
  -26.2327    8.3985    6.9776 C   0  0  0  0  0  0  0  0  0  0  0  0
  -33.0966    3.6195    8.6136 C   0  0  0  0  0  0  0  0  0  0  0  0
  -33.9203    5.8700    9.0187 C   0  0  0  0  0  0  0  0  0  0  0  0
  -35.3709    3.0323    7.0960 O   0  0  0  0  0  0  0  0  0  0  0  0
  -35.2510    4.1728    7.6187 C   0  0  0  0  0  0  0  0  0  0  0  0
  -36.2486    5.1198    7.4205 O   0  0  0  0  0  0  0  0  0  0  0  0
  -32.2203   10.3342    8.1655 C   0  0  0  0  0  0  0  0  0  0  0  0
  -27.5320    8.9561    6.9604 C   0  0  0  0  0  0  0  0  0  0  0  0
  -33.4127   11.0340    8.3491 O   0  0  0  0  0  0  0  0  0  0  0  0
  -28.1183   12.6668    4.8517 C   0  0  0  0  0  0  0  0  0  0  0  0
  -25.0532    9.1650    6.4595 C   0  0  0  0  0  0  0  0  0  0  0  0
  -33.1510    8.1279    8.5908 N   0  0  0  0  0  0  0  0  0  0  0  0
  -30.0453   10.4891    7.1527 O   0  0  0  0  0  0  0  0  0  0  0  0
  -33.2965    6.8092    8.0038 C   0  0  0  0  0  0  0  0  0  0  0  0
  -27.7641   10.2745    6.2962 C   0  0  0  0  0  0  0  0  0  0  0  0
  -28.3616    6.9625    8.0914 C   0  0  0  0  0  0  0  0  0  0  0  0
  -28.5883    8.2138    7.5145 C   0  0  0  0  0  0  0  0  0  0  0  0
  -26.7147   10.8168    5.5243 C   0  0  0  0  0  0  0  0  0  0  0  0
  -34.0700    4.5053    8.4344 C   0  0  0  0  0  0  0  0  0  0  0  0
  -25.4531   10.1489    5.4595 N   0  0  0  0  0  0  0  0  0  0  0  0
  -28.9966   10.9736    6.3630 C   0  0  0  0  0  0  0  0  0  0  0  0
  -31.3218   11.1123    7.2229 C   0  0  0  0  0  0  0  0  0  0  0  0
  -26.9001   11.9938    4.7974 C   0  0  0  0  0  0  0  0  0  0  0  0
  -27.0720    6.4312    8.1189 C   0  0  0  0  0  0  0  0  0  0  0  0
  1 15  1  0
  1 10  1  0
  2 27  4  0
  3 24  4  0
  4 11  4  0
  4  2  4  0
  5 22  2  0
  6 22  1  0
  7  8  2  0
  8 22  1  0
  8  9  1  0
 10 12  1  0
 11 20  4  0
 13  3  4  0
 14  4  1  0
 17 15  1  0
 17  6  1  0
 18 24  4  0
 18 11  1  0
 20 19  4  0
 21 18  4  0
 23 21  1  0
 23 14  1  0
 24 16  1  0
 25 16  1  0
 25 10  1  0
 26 13  4  0
 26 21  4  0
 27 19  4  0
M  END
$$$$

     RDKit          3D

 37 41  0  0  0  0  0  0  0  0999 V2000
  -32.5268    6.7701    8.6911 C   0  0  0  0  0  0  0  0  0  0  0  0
  -25.7144   13.8923    5.9179 F   0  0  0  0  0  0  0  0  0  0  0  0
  -34.9660    5.0367    8.6056 C   0  0  0  0  0  0  0  0  0  0  0  0
  -27.8146   10.2506    6.2239 C   0  0  0  0  0  0  0  0  0  0  0  0
  -26.7619   13.5991    5.0645 C   0  0  0  0  0  0  0  0  0  0  0  0
  -25.3970   10.7849    5.8382 C   0  0  0  0  0  0  0  0  0  0  0  0
  -35.2311    5.0352   10.1235 C   0  0  0  0  0  0  0  0  0  0  0  0
  -26.8661   11.1094    5.8898 C   0  0  0  0  0  0  0  0  0  0  0  0
  -25.0951    9.3646    6.2477 C   0  0  0  0  0  0  0  0  0  0  0  0
  -30.6923    8.3360    6.3672 S   0  0  0  0  0  0  0  0  0  0  0  0
  -23.8939    8.9861    6.2762 O   0  0  0  0  0  0  0  0  0  0  0  0
  -33.5223    2.4907    9.5645 C   0  0  0  0  0  0  0  0  0  0  0  0
  -27.6163   14.6872    5.0154 F   0  0  0  0  0  0  0  0  0  0  0  0
  -32.5071    5.2530    8.9134 C   0  0  0  0  0  0  0  0  0  0  0  0
  -32.9930    7.1287    7.2741 C   0  0  0  0  0  0  0  0  0  0  0  0
  -25.8898    7.0941    6.9556 C   0  0  0  0  0  0  0  0  0  0  0  0
  -29.1640   10.8925    6.1412 C   0  0  0  0  0  0  0  0  0  0  0  0
  -34.4065    6.9220    6.9126 C   0  0  0  0  0  0  0  0  0  0  0  0
  -34.7843    2.6705   10.1350 O   0  0  0  0  0  0  0  0  0  0  0  0
  -33.6130    4.5924    8.2068 N   0  0  0  0  0  0  0  0  0  0  0  0
  -28.5488    7.9644    6.9208 C   0  0  0  0  0  0  0  0  0  0  0  0
  -27.5203    8.8555    6.5898 C   0  0  0  0  0  0  0  0  0  0  0  0
  -31.1877   10.8016    7.3064 C   0  0  0  0  0  0  0  0  0  0  0  0
  -33.4733    3.1318    8.1781 C   0  0  0  0  0  0  0  0  0  0  0  0
  -28.8035   12.2726    5.6703 C   0  0  0  0  0  0  0  0  0  0  0  0
  -26.2631   13.3595    3.7978 F   0  0  0  0  0  0  0  0  0  0  0  0
  -32.0093    7.1081    6.1159 C   0  0  0  0  0  0  0  0  0  0  0  0
  -27.4841   12.3797    5.5535 C   0  0  0  0  0  0  0  0  0  0  0  0
  -28.2488    6.6448    7.2684 C   0  0  0  0  0  0  0  0  0  0  0  0
  -33.2316   10.6799    8.5093 O   0  0  0  0  0  0  0  0  0  0  0  0
  -26.1806    8.4199    6.6045 C   0  0  0  0  0  0  0  0  0  0  0  0
  -29.7543   10.9687    7.4682 N   0  0  0  0  0  0  0  0  0  0  0  0
  -35.2944    6.4415    8.0706 C   0  0  0  0  0  0  0  0  0  0  0  0
  -33.9045    8.2771    7.2294 N   0  0  0  0  0  0  0  0  0  0  0  0
  -34.6563    3.8423   10.8814 C   0  0  0  0  0  0  0  0  0  0  0  0
  -31.8560   10.8421    8.6640 C   0  0  0  0  0  0  0  0  0  0  0  0
  -26.9208    6.2103    7.2865 C   0  0  0  0  0  0  0  0  0  0  0  0
  1 14  1  0
  3 33  1  0
  3  7  1  0
  4 17  1  0
  4 22  1  0
  5 13  1  0
  5 28  1  0
  5  2  1  0
  6  8  1  0
  6  9  1  0
  7 35  1  0
  8  4  2  0
  9 31  1  0
 10 27  1  0
 11  9  2  0
 12 19  1  0
 15 27  1  0
 15 18  1  0
 15 34  1  0
 15  1  1  0
 16 37  4  0
 17 32  1  0
 18 34  1  0
 18 33  1  0
 19 35  1  0
 20 24  1  0
 20  3  1  0
 20 14  1  0
 21 29  4  0
 22 21  4  0
 23 32  1  0
 23 36  1  0
 24 12  1  0
 25 17  1  0
 26  5  1  0
 28  8  1  0
 28 25  2  0
 31 22  4  0
 31 16  4  0
 36 30  1  0
 37 29  4  0
M  END
$$$$

     RDKit          3D

 27 30  0  0  0  0  0  0  0  0999 V2000
  -26.1624    8.9725    5.9541 C   0  0  0  0  0  0  0  0  0  0  0  0
  -25.7969    8.8385    8.7035 C   0  0  0  0  0  0  0  0  0  0  0  0
  -26.2355    9.8251    4.9838 N   0  0  0  0  0  0  0  0  0  0  0  0
  -28.0619   11.4716    4.2337 C   0  0  0  0  0  0  0  0  0  0  0  0
  -31.9443    9.4626    9.1793 C   0  0  0  0  0  0  0  0  0  0  0  0
  -24.7380    8.3487    7.7796 C   0  0  0  0  0  0  0  0  0  0  0  0
  -31.7852    7.1821    9.8980 O   0  0  0  0  0  0  0  0  0  0  0  0
  -30.0900   11.4408    5.7499 C   0  0  0  0  0  0  0  0  0  0  0  0
  -34.6790    6.9152    6.2380 C   0  0  0  0  0  0  0  0  0  0  0  0
  -27.5159   10.4301    5.1084 C   0  0  0  0  0  0  0  0  0  0  0  0
  -31.4905   10.3194    8.0099 C   0  0  0  0  0  0  0  0  0  0  0  0
  -33.3593    7.5420    8.1942 N   0  0  0  0  0  0  0  0  0  0  0  0
  -32.7398    8.3530    5.9468 C   0  0  0  0  0  0  0  0  0  0  0  0
  -30.1754    9.9421    7.6201 O   0  0  0  0  0  0  0  0  0  0  0  0
  -33.2719    7.1852    6.7636 C   0  0  0  0  0  0  0  0  0  0  0  0
  -27.3904    8.9188    6.8125 C   0  0  0  0  0  0  0  0  0  0  0  0
  -29.4206   12.0555    4.5358 C   0  0  0  0  0  0  0  0  0  0  0  0
  -32.0904    7.9922    8.7884 C   0  0  0  0  0  0  0  0  0  0  0  0
  -24.8941    8.4318    6.4517 C   0  0  0  0  0  0  0  0  0  0  0  0
  -33.1489    9.9538    9.6849 O   0  0  0  0  0  0  0  0  0  0  0  0
  -30.9186    7.0826    8.7945 C   0  0  0  0  0  0  0  0  0  0  0  0
  -27.4029   11.8840    3.2439 O   0  0  0  0  0  0  0  0  0  0  0  0
  -32.8947    4.9640    7.2866 C   0  0  0  0  0  0  0  0  0  0  0  0
  -32.4295    6.0662    6.5439 O   0  0  0  0  0  0  0  0  0  0  0  0
  -29.5188   10.4893    6.5132 C   0  0  0  0  0  0  0  0  0  0  0  0
  -27.0187    9.1696    8.2512 C   0  0  0  0  0  0  0  0  0  0  0  0
  -28.1723   10.0073    6.1706 C   0  0  0  0  0  0  0  0  0  0  0  0
  1 16  1  0
  1 19  1  0
  3  1  2  0
  4 17  1  0
  4 10  1  0
  5 20  1  0
  6  2  1  0
  8 25  2  0
 10  3  1  0
 10 27  2  0
 11 14  1  0
 11  5  1  0
 13 15  1  0
 15 24  1  0
 15 12  1  0
 15  9  1  0
 16 26  1  0
 17  8  1  0
 18 12  1  0
 18  7  1  0
 18  5  1  0
 19  6  2  0
 21 18  1  0
 21  7  1  0
 22  4  2  0
 24 23  1  0
 25 14  1  0
 26  2  2  0
 27 25  1  0
 27 16  1  0
M  END
$$$$

     RDKit          3D

 24 28  0  0  0  0  0  0  0  0999 V2000
  -29.8448    8.7773    7.2544 C   0  0  0  0  0  0  0  0  0  0  0  0
  -27.4894    8.9374    7.0562 C   0  0  0  0  0  0  0  0  0  0  0  0
  -28.5626    8.1757    7.4321 C   0  0  0  0  0  0  0  0  0  0  0  0
  -31.0700    8.0442    7.7275 C   0  0  0  0  0  0  0  0  0  0  0  0
  -28.2533    6.9000    7.9486 C   0  0  0  0  0  0  0  0  0  0  0  0
  -33.9814    6.9312    7.0043 C   0  0  0  0  0  0  0  0  0  0  0  0
  -26.1892   11.8498    5.7886 C   0  0  0  0  0  0  0  0  0  0  0  0
  -34.4543    5.8109    7.9065 C   0  0  0  0  0  0  0  0  0  0  0  0
  -32.3516   10.1295    7.2999 C   0  0  0  0  0  0  0  0  0  0  0  0
  -28.7695   10.7532    6.3910 C   0  0  0  0  0  0  0  0  0  0  0  0
  -31.2229   10.7159    6.4619 C   0  0  0  0  0  0  0  0  0  0  0  0
  -33.4979    8.0353    7.8182 N   0  0  0  0  0  0  0  0  0  0  0  0
  -26.1787    8.6053    7.1212 C   0  0  0  0  0  0  0  0  0  0  0  0
  -33.5646   10.6617    6.8606 O   0  0  0  0  0  0  0  0  0  0  0  0
  -27.5796   10.1077    6.5850 C   0  0  0  0  0  0  0  0  0  0  0  0
  -32.3513    8.6161    7.1338 C   0  0  0  0  0  0  0  0  0  0  0  0
  -29.9283   10.0810    6.7400 N   0  0  0  0  0  0  0  0  0  0  0  0
  -28.6726   12.0538    5.8479 C   0  0  0  0  0  0  0  0  0  0  0  0
  -25.8244    7.3507    7.6241 C   0  0  0  0  0  0  0  0  0  0  0  0
  -26.8855    6.4941    8.0410 C   0  0  0  0  0  0  0  0  0  0  0  0
  -26.3355   10.5677    6.3248 C   0  0  0  0  0  0  0  0  0  0  0  0
  -27.3824   12.5943    5.5501 C   0  0  0  0  0  0  0  0  0  0  0  0
  -35.1366    7.3991    6.1408 C   0  0  0  0  0  0  0  0  0  0  0  0
  -25.3957    9.6291    6.6573 N   0  0  0  0  0  0  0  0  0  0  0  0
  1  3  4  0
  2  3  4  0
  3  5  4  0
  4 16  1  0
  4  1  1  0
  6 12  1  0
  6  8  1  0
  7 22  4  0
  7 21  4  0
  9 14  1  0
 10 17  4  0
 11  9  1  0
 13  2  4  0
 13 19  4  0
 15 10  4  0
 15  2  2  0
 16 12  1  0
 16  9  1  0
 17 11  1  0
 17  1  4  0
 18 10  4  0
 19 20  4  0
 20  5  4  0
 21 24  4  0
 21 15  4  0
 22 18  4  0
 23  6  1  0
 24 13  4  0
M  END
$$$$

     RDKit          3D

 21 23  0  0  0  0  0  0  0  0999 V2000
  -25.8015    9.9633    5.5920 N   0  0  0  0  0  0  0  0  0  0  0  0
  -29.4942   11.4735    6.3617 C   0  0  0  0  0  0  0  0  0  0  0  0
  -29.2172   10.1007    6.5277 C   0  0  0  0  0  0  0  0  0  0  0  0
  -31.4785    9.6107    7.4292 C   0  0  0  0  0  0  0  0  0  0  0  0
  -27.8529    7.3719    7.1951 C   0  0  0  0  0  0  0  0  0  0  0  0
  -27.3973    8.4492    6.3082 C   0  0  0  0  0  0  0  0  0  0  0  0
  -34.5851    7.6080    7.4626 C   0  0  0  0  0  0  0  0  0  0  0  0
  -32.5545   10.9411    9.1039 O   0  0  0  0  0  0  0  0  0  0  0  0
  -27.2149   11.8799    5.5893 C   0  0  0  0  0  0  0  0  0  0  0  0
  -28.5012   12.3538    5.8919 C   0  0  0  0  0  0  0  0  0  0  0  0
  -30.1813    9.2057    7.0082 O   0  0  0  0  0  0  0  0  0  0  0  0
  -25.4994    7.1663    7.8817 C   0  0  0  0  0  0  0  0  0  0  0  0
  -25.0577    8.0453    6.9659 C   0  0  0  0  0  0  0  0  0  0  0  0
  -32.3931    8.3969    7.4359 C   0  0  0  0  0  0  0  0  0  0  0  0
  -25.9692    8.5382    5.8711 C   0  0  0  0  0  0  0  0  0  0  0  0
  -26.9249    6.7444    7.9288 C   0  0  0  0  0  0  0  0  0  0  0  0
  -36.0536    7.9762    7.4678 C   0  0  0  0  0  0  0  0  0  0  0  0
  -33.7836    8.8171    7.4322 N   0  0  0  0  0  0  0  0  0  0  0  0
  -31.3947   10.2184    8.8234 C   0  0  0  0  0  0  0  0  0  0  0  0
  -27.9374    9.6490    6.1777 C   0  0  0  0  0  0  0  0  0  0  0  0
  -26.9598   10.5184    5.7438 C   0  0  0  0  0  0  0  0  0  0  0  0
  1 15  1  0
  2  3  4  0
  3 11  1  0
  4 14  1  0
  4 19  1  0
  5 16  2  0
  6  5  1  0
  7 18  1  0
  7 17  1  0
  8 19  1  0
  9 10  4  0
  9 21  4  0
 10  2  4  0
 11  4  1  0
 12 16  1  0
 13 12  2  0
 14 18  1  0
 15  6  1  0
 15 13  1  0
 20  3  4  0
 20  6  2  0
 21  1  2  0
 21 20  4  0
M  END
$$$$

     RDKit          3D

 29 33  0  0  0  0  0  0  0  0999 V2000
  -30.9019    8.7173    9.4033 C   0  0  0  0  0  0  0  0  0  0  0  0
  -31.6662   10.5207    5.7957 C   0  0  0  0  0  0  0  0  0  0  0  0
  -32.8946    4.0467    6.9221 C   0  0  0  0  0  0  0  0  0  0  0  0
  -28.6172    9.4085   10.4798 C   0  0  0  0  0  0  0  0  0  0  0  0
  -33.6300    9.5031    6.6265 O   0  0  0  0  0  0  0  0  0  0  0  0
  -32.0003   11.6387    5.3248 O   0  0  0  0  0  0  0  0  0  0  0  0
  -26.7695    9.2809    6.7452 C   0  0  0  0  0  0  0  0  0  0  0  0
  -24.5729    8.3017    6.5112 C   0  0  0  0  0  0  0  0  0  0  0  0
  -31.8820    8.0246    5.8613 C   0  0  0  0  0  0  0  0  0  0  0  0
  -28.9714    9.2926    8.0181 C   0  0  0  0  0  0  0  0  0  0  0  0
  -33.1513    4.5674    5.5195 C   0  0  0  0  0  0  0  0  0  0  0  0
  -31.5080    8.7677   10.5052 O   0  0  0  0  0  0  0  0  0  0  0  0
  -32.3053    5.7995    5.2529 C   0  0  0  0  0  0  0  0  0  0  0  0
  -27.5916    9.8796    7.8296 C   0  0  0  0  0  0  0  0  0  0  0  0
  -30.4671   10.4047    6.5077 O   0  0  0  0  0  0  0  0  0  0  0  0
  -27.2906    9.5276   10.3510 C   0  0  0  0  0  0  0  0  0  0  0  0
  -25.6023    8.9465    8.7104 N   0  0  0  0  0  0  0  0  0  0  0  0
  -26.9681    9.2904    5.3647 C   0  0  0  0  0  0  0  0  0  0  0  0
  -29.8587    9.1458    6.8079 C   0  0  0  0  0  0  0  0  0  0  0  0
  -31.5869    8.2664    8.2728 O   0  0  0  0  0  0  0  0  0  0  0  0
  -24.7613    8.2715    5.1188 C   0  0  0  0  0  0  0  0  0  0  0  0
  -32.8318    6.9299    6.0017 N   0  0  0  0  0  0  0  0  0  0  0  0
  -30.9041    8.0499    7.0389 C   0  0  0  0  0  0  0  0  0  0  0  0
  -25.5973    8.8280    7.2974 C   0  0  0  0  0  0  0  0  0  0  0  0
  -32.6117    9.3624    5.6801 C   0  0  0  0  0  0  0  0  0  0  0  0
  -25.9521    8.7664    4.5477 C   0  0  0  0  0  0  0  0  0  0  0  0
  -29.1712    9.4277   11.8628 C   0  0  0  0  0  0  0  0  0  0  0  0
  -26.7260    9.5235    9.0058 C   0  0  0  0  0  0  0  0  0  0  0  0
  -29.4879    9.1642    9.2729 C   0  0  0  0  0  0  0  0  0  0  0  0
  1 12  2  0
  2 25  1  0
  4 29  1  0
  4 27  1  0
  6  2  2  0
  7 18  4  0
  8 21  4  0
  8 24  4  0
  9 22  1  0
  9 23  1  0
  9 25  1  0
 10 19  1  0
 10 29  2  0
 11  3  1  0
 13 22  1  0
 13 11  1  0
 14  7  1  0
 14 10  1  0
 15  2  1  0
 16  4  2  0
 17 28  2  0
 19 15  1  0
 19 23  1  0
 20  1  1  0
 21 26  4  0
 23 20  1  0
 24 17  1  0
 24  7  4  0
 25  5  1  0
 26 18  4  0
 28 14  1  0
 28 16  1  0
 29  1  1  0
M  END
$$$$

     RDKit          3D

 27 30  0  0  0  0  0  0  0  0999 V2000
  -25.0249    5.6562    9.1683 C   0  0  0  0  0  0  0  0  0  0  0  0
  -27.7781   11.9323    4.9028 C   0  0  0  0  0  0  0  0  0  0  0  0
  -30.8171   12.2044    8.4396 C   0  0  0  0  0  0  0  0  0  0  0  0
  -26.3733    7.9251    6.4946 C   0  0  0  0  0  0  0  0  0  0  0  0
  -28.9763   10.5063    6.4914 C   0  0  0  0  0  0  0  0  0  0  0  0
  -32.7440    9.2025    7.0135 C   0  0  0  0  0  0  0  0  0  0  0  0
  -25.8315    6.6561    8.4633 C   0  0  0  0  0  0  0  0  0  0  0  0
  -27.9112    9.6073    6.4120 C   0  0  0  0  0  0  0  0  0  0  0  0
  -26.8602    7.4586    9.1883 C   0  0  0  0  0  0  0  0  0  0  0  0
  -25.8690    8.8020    5.6824 N   0  0  0  0  0  0  0  0  0  0  0  0
  -25.5597    6.9146    7.1761 C   0  0  0  0  0  0  0  0  0  0  0  0
  -34.1965    7.2900    6.9953 C   0  0  0  0  0  0  0  0  0  0  0  0
  -26.8352    9.8364    5.5890 C   0  0  0  0  0  0  0  0  0  0  0  0
  -27.7415    8.2660    7.0253 C   0  0  0  0  0  0  0  0  0  0  0  0
  -25.2186    5.3990   10.4197 N   0  0  0  0  0  0  0  0  0  0  0  0
  -30.0769   10.2182    7.3056 O   0  0  0  0  0  0  0  0  0  0  0  0
  -34.4251    5.7566    5.3018 N   0  0  0  0  0  0  0  0  0  0  0  0
  -33.7975    6.8994    5.7428 O   0  0  0  0  0  0  0  0  0  0  0  0
  -26.7292   11.0005    4.8305 C   0  0  0  0  0  0  0  0  0  0  0  0
  -33.4914   11.1864    8.0930 O   0  0  0  0  0  0  0  0  0  0  0  0
  -32.3950   10.3289    7.9727 C   0  0  0  0  0  0  0  0  0  0  0  0
  -27.7158    8.2590    8.5310 C   0  0  0  0  0  0  0  0  0  0  0  0
  -35.1984    6.3760    7.5400 C   0  0  0  0  0  0  0  0  0  0  0  0
  -35.3319    5.3670    6.3958 C   0  0  0  0  0  0  0  0  0  0  0  0
  -33.7430    8.3327    7.6133 N   0  0  0  0  0  0  0  0  0  0  0  0
  -31.1844   11.1011    7.4596 C   0  0  0  0  0  0  0  0  0  0  0  0
  -28.8964   11.6874    5.7245 C   0  0  0  0  0  0  0  0  0  0  0  0
  1 15  2  0
  2 27  4  0
  4 14  1  0
  4 11  1  0
  5  8  4  0
  5 16  1  0
  6 25  1  0
  6 21  1  0
  7  1  1  0
  7  9  1  0
  8 14  1  0
 10  4  2  0
 11  7  2  0
 12 23  1  0
 13 10  1  0
 13  8  4  0
 14 22  1  0
 16 26  1  0
 17 18  1  0
 17 24  1  0
 18 12  1  0
 19  2  4  0
 19 13  4  0
 21 20  1  0
 22  9  2  0
 24 23  1  0
 25 12  2  3
 26  3  1  0
 26 21  1  0
 27  5  4  0
M  END
$$$$

     RDKit          3D

 37 39  0  0  0  0  0  0  0  0999 V2000
  -28.6476    8.2016    7.9164 C   0  0  0  0  0  0  0  0  0  0  0  0
  -29.9585   10.4969    7.3557 O   0  0  0  0  0  0  0  0  0  0  0  0
  -25.2232    9.9385    6.1635 N   0  0  0  0  0  0  0  0  0  0  0  0
  -28.7458   11.0404    6.9017 C   0  0  0  0  0  0  0  0  0  0  0  0
  -31.7761    5.9806    7.9784 F   0  0  0  0  0  0  0  0  0  0  0  0
  -27.5944   10.2150    6.7971 C   0  0  0  0  0  0  0  0  0  0  0  0
  -26.4850    7.9606    6.8597 C   0  0  0  0  0  0  0  0  0  0  0  0
  -33.2438    4.5749    6.1455 F   0  0  0  0  0  0  0  0  0  0  0  0
  -28.2147    4.3815    9.4903 F   0  0  0  0  0  0  0  0  0  0  0  0
  -32.3709   10.3859    7.9326 C   0  0  0  0  0  0  0  0  0  0  0  0
  -27.5195    6.0574    7.9652 C   0  0  0  0  0  0  0  0  0  0  0  0
  -26.4658    6.6120    7.2287 C   0  0  0  0  0  0  0  0  0  0  0  0
  -26.3881   10.7717    6.3128 C   0  0  0  0  0  0  0  0  0  0  0  0
  -33.4096   11.2700    8.2320 O   0  0  0  0  0  0  0  0  0  0  0  0
  -26.3287   12.1324    5.9822 C   0  0  0  0  0  0  0  0  0  0  0  0
  -34.7205    6.1061    7.2488 C   0  0  0  0  0  0  0  0  0  0  0  0
  -26.2193    4.1439    8.4827 F   0  0  0  0  0  0  0  0  0  0  0  0
  -28.1167    3.8827    7.2953 F   0  0  0  0  0  0  0  0  0  0  0  0
  -28.6176    6.8587    8.2944 C   0  0  0  0  0  0  0  0  0  0  0  0
  -27.5162    4.5977    8.3149 C   0  0  0  0  0  0  0  0  0  0  0  0
  -28.6524   12.3976    6.5583 C   0  0  0  0  0  0  0  0  0  0  0  0
  -31.2206   11.1044    7.3082 C   0  0  0  0  0  0  0  0  0  0  0  0
  -34.0335    7.2823    6.6339 C   0  0  0  0  0  0  0  0  0  0  0  0
  -27.3810   14.3819    5.7356 C   0  0  0  0  0  0  0  0  0  0  0  0
  -33.8689    7.3276    5.3841 O   0  0  0  0  0  0  0  0  0  0  0  0
  -33.5530    8.3328    7.4758 N   0  0  0  0  0  0  0  0  0  0  0  0
  -23.9145   10.5177    5.9003 C   0  0  0  0  0  0  0  0  0  0  0  0
  -27.7275   14.5410    4.3342 N   0  0  0  0  0  0  0  0  0  0  0  0
  -32.7288    5.0811    8.4228 C   0  0  0  0  0  0  0  0  0  0  0  0
  -33.8182    4.8750    7.3697 C   0  0  0  0  0  0  0  0  0  0  0  0
  -32.1096    3.8776    8.7089 F   0  0  0  0  0  0  0  0  0  0  0  0
  -34.6100    3.8086    7.7546 F   0  0  0  0  0  0  0  0  0  0  0  0
  -31.4076   12.1893    6.6919 O   0  0  0  0  0  0  0  0  0  0  0  0
  -32.8566    9.3203    7.0147 C   0  0  0  0  0  0  0  0  0  0  0  0
  -27.4518   12.9441    6.1126 C   0  0  0  0  0  0  0  0  0  0  0  0
  -27.5914    8.7725    7.1883 C   0  0  0  0  0  0  0  0  0  0  0  0
  -25.3536    8.4907    6.0349 C   0  0  0  0  0  0  0  0  0  0  0  0
  1 19  4  0
  2 22  1  0
  3 27  1  0
  4  2  1  0
  5 29  1  0
  6  4  4  0
  6 36  1  0
  7 36  4  0
  7 12  4  0
  8 30  1  0
 10 14  1  0
 11 19  4  0
 11 20  1  0
 12 11  4  0
 13  3  1  0
 13  6  4  0
 15 35  4  0
 15 13  4  0
 18 20  1  0
 20 17  1  0
 20  9  1  0
 21  4  4  0
 22 10  1  0
 23 26  1  0
 23 16  1  0
 24 28  1  0
 24 35  1  0
 25 23  2  0
 26 34  2  3
 29 31  1  0
 30 32  1  0
 30 16  1  0
 30 29  1  0
 33 22  2  0
 34 10  1  0
 35 21  4  0
 36  1  4  0
 37  3  1  0
 37  7  1  0
M  END
$$$$

     RDKit          3D

 27 30  0  0  0  0  0  0  0  0999 V2000
  -28.4376    8.0984    7.8556 C   0  0  0  0  0  0  0  0  0  0  0  0
  -26.7954    9.9080    5.1089 C   0  0  0  0  0  0  0  0  0  0  0  0
  -33.3052    6.9641    8.3458 C   0  0  0  0  0  0  0  0  0  0  0  0
  -26.4502    8.2501    6.4677 C   0  0  0  0  0  0  0  0  0  0  0  0
  -32.4894    8.9695    7.2395 C   0  0  0  0  0  0  0  0  0  0  0  0
  -31.3858   11.0448    6.4266 C   0  0  0  0  0  0  0  0  0  0  0  0
  -25.8504    7.1786    7.1206 C   0  0  0  0  0  0  0  0  0  0  0  0
  -27.8364    5.7334   10.5180 O   0  0  0  0  0  0  0  0  0  0  0  0
  -32.1606    6.6446    9.2653 C   0  0  0  0  0  0  0  0  0  0  0  0
  -27.9409   11.7898    3.9482 C   0  0  0  0  0  0  0  0  0  0  0  0
  -29.9217    6.4088    9.8992 O   0  0  0  0  0  0  0  0  0  0  0  0
  -27.7019    8.6915    6.8308 C   0  0  0  0  0  0  0  0  0  0  0  0
  -26.5650    6.5623    8.1624 C   0  0  0  0  0  0  0  0  0  0  0  0
  -32.4233   10.4829    7.3816 C   0  0  0  0  0  0  0  0  0  0  0  0
  -27.9738    9.8045    5.9509 C   0  0  0  0  0  0  0  0  0  0  0  0
  -30.1375   10.4093    6.6540 O   0  0  0  0  0  0  0  0  0  0  0  0
  -27.8596    7.0055    8.5326 C   0  0  0  0  0  0  0  0  0  0  0  0
  -28.5386    6.3597    9.6800 C   0  0  0  0  0  0  0  0  0  0  0  0
  -33.6665   11.0437    7.0874 O   0  0  0  0  0  0  0  0  0  0  0  0
  -25.8956    9.0150    5.3923 N   0  0  0  0  0  0  0  0  0  0  0  0
  -26.6813   10.9447    4.0332 C   0  0  0  0  0  0  0  0  0  0  0  0
  -34.5620    6.4446    9.0114 C   0  0  0  0  0  0  0  0  0  0  0  0
  -29.0369   10.5889    5.8182 C   0  0  0  0  0  0  0  0  0  0  0  0
  -30.8745    6.7613    8.9455 C   0  0  0  0  0  0  0  0  0  0  0  0
  -29.0063   11.6282    4.7575 C   0  0  0  0  0  0  0  0  0  0  0  0
  -33.1708    6.2291    7.0119 C   0  0  0  0  0  0  0  0  0  0  0  0
  -33.4616    8.4154    8.1771 N   0  0  0  0  0  0  0  0  0  0  0  0
  1 17  4  0
  2 20  2  0
  2 15  1  0
  3 27  1  0
  3 22  1  0
  3  9  1  0
  4 12  4  0
  4  7  4  0
  5 27  1  0
  5 14  1  0
  6 16  1  0
  6 14  1  0
  7 13  4  0
  9 24  2  0
 10 25  2  0
 12  1  4  0
 13 17  4  0
 14 19  1  0
 15 12  1  0
 17 18  1  0
 18  8  2  0
 18 11  1  0
 20  4  1  0
 21 10  1  0
 21  2  1  0
 23 15  2  0
 23 16  1  0
 24 11  1  0
 25 23  1  0
 26  3  1  0
M  END
$$$$

     RDKit          3D

 24 27  0  0  0  0  0  0  0  0999 V2000
  -27.6735    6.6196    8.0154 C   0  0  0  0  0  0  0  0  0  0  0  0
  -30.3450    9.8220    7.0975 C   0  0  0  0  0  0  0  0  0  0  0  0
  -26.5301   11.8217    5.3711 C   0  0  0  0  0  0  0  0  0  0  0  0
  -33.6017   11.0723    6.8359 O   0  0  0  0  0  0  0  0  0  0  0  0
  -33.3978    8.1445    8.1062 N   0  0  0  0  0  0  0  0  0  0  0  0
  -33.3762    6.2172    6.7832 O   0  0  0  0  0  0  0  0  0  0  0  0
  -30.3694   10.5441    8.3052 O   0  0  0  0  0  0  0  0  0  0  0  0
  -25.5915    9.7161    6.0034 N   0  0  0  0  0  0  0  0  0  0  0  0
  -28.8829   12.1231    5.9739 C   0  0  0  0  0  0  0  0  0  0  0  0
  -31.1493    8.5445    7.2539 C   0  0  0  0  0  0  0  0  0  0  0  0
  -27.5448    8.8665    6.9874 C   0  0  0  0  0  0  0  0  0  0  0  0
  -28.4368    7.8938    7.6938 C   0  0  0  0  0  0  0  0  0  0  0  0
  -32.6072    8.9427    7.1808 C   0  0  0  0  0  0  0  0  0  0  0  0
  -26.1666    8.5983    6.6746 C   0  0  0  0  0  0  0  0  0  0  0  0
  -26.5846   10.5530    5.9458 C   0  0  0  0  0  0  0  0  0  0  0  0
  -27.7602   10.0799    6.5213 C   0  0  0  0  0  0  0  0  0  0  0  0
  -28.9259   10.8426    6.5503 C   0  0  0  0  0  0  0  0  0  0  0  0
  -31.2682   10.9640    7.3071 C   0  0  0  0  0  0  0  0  0  0  0  0
  -27.6949   12.6087    5.3891 C   0  0  0  0  0  0  0  0  0  0  0  0
  -33.7381    6.7809    7.8500 C   0  0  0  0  0  0  0  0  0  0  0  0
  -25.5734    7.4532    6.9926 C   0  0  0  0  0  0  0  0  0  0  0  0
  -34.5311    6.0213    8.8508 C   0  0  0  0  0  0  0  0  0  0  0  0
  -26.3768    6.4235    7.6964 C   0  0  0  0  0  0  0  0  0  0  0  0
  -32.6460   10.3955    7.5925 C   0  0  0  0  0  0  0  0  0  0  0  0
  2 10  1  0
  2 18  1  0
  2  7  1  0
  3 15  4  0
  5 20  1  0
  8 14  1  0
  9 17  4  0
 10 13  1  0
 11 12  1  0
 12  1  1  0
 13  5  1  0
 13 24  1  0
 14 21  2  0
 14 11  1  0
 15  8  2  0
 15 16  4  0
 16 17  4  0
 16 11  2  0
 18  7  1  0
 18 24  1  0
 19  3  4  0
 19  9  4  0
 20  6  2  0
 20 22  1  0
 21 23  1  0
 23  1  2  0
 24  4  1  0
M  END
$$$$

     RDKit          3D

 21 22  0  0  0  0  0  0  0  0999 V2000
  -28.6453   10.7750    6.5062 C   0  0  0  0  0  0  0  0  0  0  0  0
  -27.8554    8.6213    7.6316 C   0  0  0  0  0  0  0  0  0  0  0  0
  -26.8107    7.9940    8.3338 C   0  0  0  0  0  0  0  0  0  0  0  0
  -27.0243    6.7891    9.0093 C   0  0  0  0  0  0  0  0  0  0  0  0
  -29.1162    8.0015    7.6148 C   0  0  0  0  0  0  0  0  0  0  0  0
  -27.6038    9.8969    6.9023 C   0  0  0  0  0  0  0  0  0  0  0  0
  -29.3320    6.7970    8.2896 C   0  0  0  0  0  0  0  0  0  0  0  0
  -32.3738   10.7030    6.9178 C   0  0  0  0  0  0  0  0  0  0  0  0
  -28.2858    6.1912    8.9880 C   0  0  0  0  0  0  0  0  0  0  0  0
  -32.6820    5.8054    7.3639 C   0  0  0  0  0  0  0  0  0  0  0  0
  -33.4178   11.6009    6.6945 O   0  0  0  0  0  0  0  0  0  0  0  0
  -32.8203    6.9015    6.3290 C   0  0  0  0  0  0  0  0  0  0  0  0
  -29.9771   10.4838    6.8235 O   0  0  0  0  0  0  0  0  0  0  0  0
  -32.6537    9.4123    6.2196 C   0  0  0  0  0  0  0  0  0  0  0  0
  -31.0680   11.3083    6.4317 C   0  0  0  0  0  0  0  0  0  0  0  0
  -32.9305    9.4033    4.9889 O   0  0  0  0  0  0  0  0  0  0  0  0
  -27.0057   12.2701    5.5032 C   0  0  0  0  0  0  0  0  0  0  0  0
  -26.2764   10.2436    6.5931 C   0  0  0  0  0  0  0  0  0  0  0  0
  -32.5837    8.1911    6.9550 N   0  0  0  0  0  0  0  0  0  0  0  0
  -25.9784   11.4172    5.9001 C   0  0  0  0  0  0  0  0  0  0  0  0
  -28.3292   11.9516    5.8051 C   0  0  0  0  0  0  0  0  0  0  0  0
  1 13  1  0
  2  5  4  0
  3  2  4  0
  3  4  4  0
  4  9  4  0
  5  7  4  0
  6  1  4  0
  6  2  1  0
  8 11  1  0
  9  7  4  0
 12 19  1  0
 12 10  1  0
 14 19  1  0
 14  8  1  0
 15 13  1  0
 15  8  1  0
 16 14  2  0
 17 21  4  0
 18  6  4  0
 20 17  4  0
 20 18  4  0
 21  1  4  0
M  END
$$$$

     RDKit          3D

 29 32  0  0  0  0  0  0  0  0999 V2000
  -32.3669    6.2976    7.4819 C   0  0  0  0  0  0  0  0  0  0  0  0
  -28.9978    5.5378    8.1294 C   0  0  0  0  0  0  0  0  0  0  0  0
  -25.6729    9.5167    5.9368 N   0  0  0  0  0  0  0  0  0  0  0  0
  -29.7770    5.7944    9.2949 N   0  0  0  0  0  0  0  0  0  0  0  0
  -29.5725   10.4305    8.3273 O   0  0  0  0  0  0  0  0  0  0  0  0
  -25.9890    8.3684    6.7840 C   0  0  0  0  0  0  0  0  0  0  0  0
  -28.5955   12.1720    6.8921 C   0  0  0  0  0  0  0  0  0  0  0  0
  -26.5239   10.4469    6.2272 C   0  0  0  0  0  0  0  0  0  0  0  0
  -26.5582   11.7068    5.6324 C   0  0  0  0  0  0  0  0  0  0  0  0
  -29.0593    4.4036    7.5853 O   0  0  0  0  0  0  0  0  0  0  0  0
  -31.9731    6.2620    5.9894 C   0  0  0  0  0  0  0  0  0  0  0  0
  -27.4780   10.0584    7.1434 C   0  0  0  0  0  0  0  0  0  0  0  0
  -33.5272    7.2438    7.8369 C   0  0  0  0  0  0  0  0  0  0  0  0
  -27.2254    8.8097    7.4952 C   0  0  0  0  0  0  0  0  0  0  0  0
  -31.5853   11.5082    7.5305 C   0  0  0  0  0  0  0  0  0  0  0  0
  -28.1581    7.8293    8.0609 C   0  0  0  0  0  0  0  0  0  0  0  0
  -32.2340   10.5827    6.8236 C   0  0  0  0  0  0  0  0  0  0  0  0
  -31.2322    8.4252    6.1277 C   0  0  0  0  0  0  0  0  0  0  0  0
  -28.1148    6.5773    7.5751 C   0  0  0  0  0  0  0  0  0  0  0  0
  -34.8514    6.5635    7.5552 C   0  0  0  0  0  0  0  0  0  0  0  0
  -32.1432    9.1247    7.1511 C   0  0  0  0  0  0  0  0  0  0  0  0
  -27.2304    6.2617    6.4133 C   0  0  0  0  0  0  0  0  0  0  0  0
  -28.5622   10.8850    7.4682 C   0  0  0  0  0  0  0  0  0  0  0  0
  -30.7038   11.2120    8.7075 C   0  0  0  0  0  0  0  0  0  0  0  0
  -31.9725    7.5199    5.3458 O   0  0  0  0  0  0  0  0  0  0  0  0
  -33.4882    8.5389    7.1461 N   0  0  0  0  0  0  0  0  0  0  0  0
  -27.5989   12.5798    5.9856 C   0  0  0  0  0  0  0  0  0  0  0  0
  -26.2767    7.1150    6.0000 C   0  0  0  0  0  0  0  0  0  0  0  0
  -32.9995   10.9898    5.7372 O   0  0  0  0  0  0  0  0  0  0  0  0
  1 13  1  0
  2  4  1  0
  3  6  1  0
  6 28  1  0
  6 14  1  0
  7 23  4  0
  8  3  2  0
  8 12  4  0
  9 27  4  0
  9  8  4  0
 10  2  2  0
 11 25  1  0
 11  1  1  0
 12 23  4  0
 12 14  2  0
 13 26  1  0
 13 20  1  0
 14 16  1  0
 15 17  2  3
 16 19  2  0
 17 29  1  0
 18 21  1  0
 19  2  1  0
 21 26  1  0
 21 17  1  0
 22 19  1  0
 23  5  1  0
 24  5  1  0
 24 15  1  0
 25 18  1  0
 27  7  4  0
 28 22  2  0
M  END
$$$$

     RDKit          3D

 27 29  0  0  0  0  0  0  0  0999 V2000
  -30.0477   10.6787    7.1402 O   0  0  0  0  0  0  0  0  0  0  0  0
  -28.0276    6.8694    8.0826 C   0  0  0  0  0  0  0  0  0  0  0  0
  -26.5205   10.6124    5.8936 C   0  0  0  0  0  0  0  0  0  0  0  0
  -27.5506   10.5124    6.9922 C   0  0  0  0  0  0  0  0  0  0  0  0
  -33.3151    8.2210    8.0813 N   0  0  0  0  0  0  0  0  0  0  0  0
  -33.2648    6.7745    7.8338 C   0  0  0  0  0  0  0  0  0  0  0  0
  -27.4154    4.0918    8.0055 O   0  0  0  0  0  0  0  0  0  0  0  0
  -26.2995    7.1368    6.3779 C   0  0  0  0  0  0  0  0  0  0  0  0
  -32.4166    8.9461    7.1850 C   0  0  0  0  0  0  0  0  0  0  0  0
  -30.6698    5.4007    9.7507 C   0  0  0  0  0  0  0  0  0  0  0  0
  -28.8628   11.1020    6.5290 C   0  0  0  0  0  0  0  0  0  0  0  0
  -27.5497    9.0391    7.1829 C   0  0  0  0  0  0  0  0  0  0  0  0
  -33.6965    6.4524    6.4104 C   0  0  0  0  0  0  0  0  0  0  0  0
  -32.4051   10.4217    7.5452 C   0  0  0  0  0  0  0  0  0  0  0  0
  -26.4899   11.7900    5.0245 C   0  0  0  0  0  0  0  0  0  0  0  0
  -28.2864    8.2496    8.0645 C   0  0  0  0  0  0  0  0  0  0  0  0
  -27.0404    6.3098    7.2403 C   0  0  0  0  0  0  0  0  0  0  0  0
  -31.4219    6.5111    9.3699 O   0  0  0  0  0  0  0  0  0  0  0  0
  -28.8627   12.0801    5.5989 C   0  0  0  0  0  0  0  0  0  0  0  0
  -31.8629    6.2104    8.0784 C   0  0  0  0  0  0  0  0  0  0  0  0
  -26.7734    4.8696    7.2507 C   0  0  0  0  0  0  0  0  0  0  0  0
  -26.5689    8.5040    6.3862 C   0  0  0  0  0  0  0  0  0  0  0  0
  -34.2416    6.0914    8.7724 C   0  0  0  0  0  0  0  0  0  0  0  0
  -25.9655    9.4872    5.5619 N   0  0  0  0  0  0  0  0  0  0  0  0
  -31.3343   11.1396    6.7457 C   0  0  0  0  0  0  0  0  0  0  0  0
  -27.6174   12.5009    4.9055 C   0  0  0  0  0  0  0  0  0  0  0  0
  -33.6482   10.9853    7.2578 O   0  0  0  0  0  0  0  0  0  0  0  0
  1 25  1  0
  3 24  2  0
  4  3  1  0
  4 11  1  0
  4 12  1  0
  6  5  1  0
  6 23  1  0
  8 17  4  0
  9  5  1  0
  9 14  1  0
 11  1  1  0
 12 16  4  0
 13  6  1  0
 14 27  1  0
 15 26  2  0
 15  3  1  0
 16  2  4  0
 17  2  4  0
 17 21  1  0
 18 10  1  0
 19 11  2  0
 20  6  1  0
 20 18  1  0
 21  7  2  0
 22 12  4  0
 22  8  4  0
 24 22  1  0
 25 14  1  0
 26 19  1  0
M  END
$$$$

     RDKit          3D

 37 41  0  0  0  0  0  0  0  0999 V2000
  -33.3956    6.0436    9.5995 C   0  0  0  0  0  0  0  0  0  0  0  0
  -32.1600    8.1642    5.6109 C   0  0  0  0  0  0  0  0  0  0  0  0
  -35.1833    7.6950    9.1730 C   0  0  0  0  0  0  0  0  0  0  0  0
  -30.9872    6.3702    9.3037 N   0  0  0  0  0  0  0  0  0  0  0  0
  -33.6733    9.6228    6.7511 O   0  0  0  0  0  0  0  0  0  0  0  0
  -28.8492    5.0937    9.7398 N   0  0  0  0  0  0  0  0  0  0  0  0
  -28.1469    7.9305    8.5730 C   0  0  0  0  0  0  0  0  0  0  0  0
  -25.9686   10.5314    3.6383 C   0  0  0  0  0  0  0  0  0  0  0  0
  -30.6139    6.6481    4.6009 O   0  0  0  0  0  0  0  0  0  0  0  0
  -30.7940    7.3726   10.1936 O   0  0  0  0  0  0  0  0  0  0  0  0
  -30.8890    7.3454    5.7769 C   0  0  0  0  0  0  0  0  0  0  0  0
  -32.7461    4.0960    7.3418 O   0  0  0  0  0  0  0  0  0  0  0  0
  -27.9623   11.6454    4.6639 C   0  0  0  0  0  0  0  0  0  0  0  0
  -32.2397    6.1112    8.6117 C   0  0  0  0  0  0  0  0  0  0  0  0
  -27.8256    9.6727    6.6792 C   0  0  0  0  0  0  0  0  0  0  0  0
  -27.4320    7.0187    9.3702 C   0  0  0  0  0  0  0  0  0  0  0  0
  -26.0680    8.5385    7.4819 C   0  0  0  0  0  0  0  0  0  0  0  0
  -29.0648   11.2363    5.3216 C   0  0  0  0  0  0  0  0  0  0  0  0
  -26.5908   10.0530    6.0144 C   0  0  0  0  0  0  0  0  0  0  0  0
  -30.1528    5.2191    9.1637 C   0  0  0  0  0  0  0  0  0  0  0  0
  -35.2163    7.3406   10.6443 C   0  0  0  0  0  0  0  0  0  0  0  0
  -25.5559    9.4092    6.4682 N   0  0  0  0  0  0  0  0  0  0  0  0
  -31.4085   10.2483    6.7157 N   0  0  0  0  0  0  0  0  0  0  0  0
  -26.7238    9.4590    3.1563 O   0  0  0  0  0  0  0  0  0  0  0  0
  -27.4291    8.6692    7.6382 C   0  0  0  0  0  0  0  0  0  0  0  0
  -30.6775    4.2721    8.4614 N   0  0  0  0  0  0  0  0  0  0  0  0
  -26.0366    6.8713    9.2069 C   0  0  0  0  0  0  0  0  0  0  0  0
  -33.8906    7.4406    9.9203 C   0  0  0  0  0  0  0  0  0  0  0  0
  -25.3384    7.6381    8.2555 C   0  0  0  0  0  0  0  0  0  0  0  0
  -26.5714   11.0879    4.9244 C   0  0  0  0  0  0  0  0  0  0  0  0
  -28.1473    6.1930   10.3854 C   0  0  0  0  0  0  0  0  0  0  0  0
  -29.0105   10.1945    6.3773 C   0  0  0  0  0  0  0  0  0  0  0  0
  -30.1610    9.7538    7.0340 O   0  0  0  0  0  0  0  0  0  0  0  0
  -32.3612    9.1321    6.7875 C   0  0  0  0  0  0  0  0  0  0  0  0
  -33.2925    7.2564    5.5064 N   0  0  0  0  0  0  0  0  0  0  0  0
  -31.9595    4.7524    8.0733 C   0  0  0  0  0  0  0  0  0  0  0  0
  -31.7308   11.2090    7.7638 C   0  0  0  0  0  0  0  0  0  0  0  0
  2 35  1  0
  2 34  1  0
  3 21  1  0
  3 28  1  0
  4 14  1  0
  6 20  1  0
  7 16  4  0
  9 11  1  0
 10  4  1  0
 11  2  1  0
 13 18  2  0
 14  1  1  0
 14 36  1  0
 15 25  1  0
 16 31  1  0
 17 25  4  0
 17 29  4  0
 18 32  1  0
 19 22  2  0
 19 15  1  0
 20  4  1  0
 20 26  2  0
 21 28  1  0
 22 17  1  0
 23 34  1  0
 23 37  1  0
 24  8  1  0
 25  7  4  0
 26 36  1  0
 27 16  4  0
 28  1  1  0
 29 27  4  0
 30  8  1  0
 30 13  1  0
 30 19  1  0
 31  6  1  0
 32 15  2  0
 32 33  1  0
 33 23  1  0
 34  5  1  0
 36 12  2  0
M  END
$$$$

     RDKit          3D

 27 31  0  0  0  0  0  0  0  0999 V2000
  -26.8572    5.3795    9.3780 C   0  0  0  0  0  0  0  0  0  0  0  0
  -34.3893    6.6922    6.1930 C   0  0  0  0  0  0  0  0  0  0  0  0
  -28.1681   12.0376    5.2308 C   0  0  0  0  0  0  0  0  0  0  0  0
  -33.1399    5.8490    6.4684 C   0  0  0  0  0  0  0  0  0  0  0  0
  -28.7570    8.0490    7.5482 C   0  0  0  0  0  0  0  0  0  0  0  0
  -33.2122    5.2905    7.8795 C   0  0  0  0  0  0  0  0  0  0  0  0
  -31.9539    9.1786    5.8301 C   0  0  0  0  0  0  0  0  0  0  0  0
  -26.7978   12.3602    5.1795 C   0  0  0  0  0  0  0  0  0  0  0  0
  -34.0247   10.6977    7.2322 O   0  0  0  0  0  0  0  0  0  0  0  0
  -26.2811   10.3139    6.3177 C   0  0  0  0  0  0  0  0  0  0  0  0
  -27.1325    6.5561    8.6034 C   0  0  0  0  0  0  0  0  0  0  0  0
  -26.0706    7.3633    8.1583 C   0  0  0  0  0  0  0  0  0  0  0  0
  -26.3804    8.4948    7.4064 C   0  0  0  0  0  0  0  0  0  0  0  0
  -32.4780    7.9734    5.3395 O   0  0  0  0  0  0  0  0  0  0  0  0
  -28.4673    6.9011    8.3045 C   0  0  0  0  0  0  0  0  0  0  0  0
  -27.6279    9.9938    6.3758 C   0  0  0  0  0  0  0  0  0  0  0  0
  -30.4804    9.2682    5.4762 C   0  0  0  0  0  0  0  0  0  0  0  0
  -26.6353    4.4308   10.0025 N   0  0  0  0  0  0  0  0  0  0  0  0
  -32.7573   10.5283    7.7950 C   0  0  0  0  0  0  0  0  0  0  0  0
  -28.6068   10.8373    5.8158 C   0  0  0  0  0  0  0  0  0  0  0  0
  -25.8375   11.4923    5.7228 C   0  0  0  0  0  0  0  0  0  0  0  0
  -33.0673    7.3647    6.4518 C   0  0  0  0  0  0  0  0  0  0  0  0
  -29.9730   10.5497    5.8165 O   0  0  0  0  0  0  0  0  0  0  0  0
  -27.6863    8.8203    7.0988 C   0  0  0  0  0  0  0  0  0  0  0  0
  -25.4979    9.4023    6.9369 N   0  0  0  0  0  0  0  0  0  0  0  0
  -32.9778    8.0976    7.6999 N   0  0  0  0  0  0  0  0  0  0  0  0
  -32.1325    9.2145    7.3416 C   0  0  0  0  0  0  0  0  0  0  0  0
  1 18  3  0
  2  4  1  0
  3 20  4  0
  4  6  1  0
  5 15  4  0
  7 17  1  0
  7 27  1  0
  8  3  4  0
 10 16  4  0
 11 15  4  0
 11  1  1  0
 12 11  4  0
 13 24  4  0
 13 12  4  0
 14  7  1  0
 14 22  1  0
 16 24  4  0
 17 23  1  0
 19  9  1  0
 20 16  4  0
 20 23  1  0
 21  8  4  0
 21 10  4  0
 22  2  1  0
 22  4  1  0
 22 26  1  0
 24  5  4  0
 25 10  4  0
 25 13  4  0
 26 27  1  0
 27 19  1  0
M  END
$$$$

     RDKit          3D

 24 27  0  0  0  0  0  0  0  0999 V2000
  -29.1174   10.7515    6.3414 C   0  0  0  0  0  0  0  0  0  0  0  0
  -30.0878    9.9042    6.8909 O   0  0  0  0  0  0  0  0  0  0  0  0
  -24.8850    8.5265    6.7771 C   0  0  0  0  0  0  0  0  0  0  0  0
  -27.1070   12.4417    5.2400 C   0  0  0  0  0  0  0  0  0  0  0  0
  -30.9862    7.2386    7.7844 C   0  0  0  0  0  0  0  0  0  0  0  0
  -25.5844   10.7029    5.8400 N   0  0  0  0  0  0  0  0  0  0  0  0
  -35.5968    6.8820    8.1701 C   0  0  0  0  0  0  0  0  0  0  0  0
  -34.1730    6.4908    7.8303 C   0  0  0  0  0  0  0  0  0  0  0  0
  -26.7851   11.1988    5.7815 C   0  0  0  0  0  0  0  0  0  0  0  0
  -32.3349    7.9291    7.6842 C   0  0  0  0  0  0  0  0  0  0  0  0
  -27.1891    9.2721    6.7590 C   0  0  0  0  0  0  0  0  0  0  0  0
  -25.7964    9.4439    6.4708 C   0  0  0  0  0  0  0  0  0  0  0  0
  -33.4678    9.9906    8.2030 O   0  0  0  0  0  0  0  0  0  0  0  0
  -27.7708   10.3735    6.3204 C   0  0  0  0  0  0  0  0  0  0  0  0
  -33.2558    7.2973    8.6169 N   0  0  0  0  0  0  0  0  0  0  0  0
  -34.9970    5.6259    8.7617 C   0  0  0  0  0  0  0  0  0  0  0  0
  -26.8123    7.1201    7.7399 C   0  0  0  0  0  0  0  0  0  0  0  0
  -28.4525   12.8440    5.2511 C   0  0  0  0  0  0  0  0  0  0  0  0
  -32.0926   10.0058    5.5284 C   0  0  0  0  0  0  0  0  0  0  0  0
  -32.2059    9.4272    7.9964 C   0  0  0  0  0  0  0  0  0  0  0  0
  -29.4480   12.0095    5.7962 C   0  0  0  0  0  0  0  0  0  0  0  0
  -27.6996    8.0721    7.4151 C   0  0  0  0  0  0  0  0  0  0  0  0
  -25.3152    7.2355    7.4554 C   0  0  0  0  0  0  0  0  0  0  0  0
  -31.4765   10.2203    6.9058 C   0  0  0  0  0  0  0  0  0  0  0  0
  1  2  1  0
  2 24  1  0
  3 23  1  0
  4 18  4  0
  4  9  4  0
  6 12  1  0
  7 16  1  0
  8 15  1  0
  8  7  1  0
  8 16  1  0
  9  6  2  0
  9 14  4  0
 10  5  1  0
 10 15  1  0
 10 20  1  0
 11 22  1  0
 12 11  1  0
 12  3  2  0
 14  1  4  0
 14 11  2  0
 18 21  4  0
 20 13  1  0
 21  1  4  0
 22 17  2  0
 23 17  1  0
 24 19  1  0
 24 20  1  0
M  END
$$$$

     RDKit          3D

 21 23  0  0  0  0  0  0  0  0999 V2000
  -31.7345    8.8392    8.2366 C   0  0  0  0  0  0  0  0  0  0  0  0
  -32.4014    8.2733    9.3956 N   0  0  0  0  0  0  0  0  0  0  0  0
  -31.9909    6.8837    9.4736 C   0  0  0  0  0  0  0  0  0  0  0  0
  -28.4994   12.6551    6.4275 C   0  0  0  0  0  0  0  0  0  0  0  0
  -29.9253   11.0525    7.4603 O   0  0  0  0  0  0  0  0  0  0  0  0
  -26.7790    7.0100    5.6743 C   0  0  0  0  0  0  0  0  0  0  0  0
  -29.1753   11.2974    6.3078 C   0  0  0  0  0  0  0  0  0  0  0  0
  -27.9185    6.1926    5.5759 C   0  0  0  0  0  0  0  0  0  0  0  0
  -26.0104    9.2535    5.9719 N   0  0  0  0  0  0  0  0  0  0  0  0
  -29.2118    6.7470    5.6675 C   0  0  0  0  0  0  0  0  0  0  0  0
  -29.3866    8.1273    5.8597 C   0  0  0  0  0  0  0  0  0  0  0  0
  -28.2440    8.9189    5.9566 C   0  0  0  0  0  0  0  0  0  0  0  0
  -26.9651    8.3781    5.8653 C   0  0  0  0  0  0  0  0  0  0  0  0
  -27.1614   12.8300    6.4180 C   0  0  0  0  0  0  0  0  0  0  0  0
  -33.4475   10.4154    7.7296 O   0  0  0  0  0  0  0  0  0  0  0  0
  -32.1042   10.3050    8.0888 C   0  0  0  0  0  0  0  0  0  0  0  0
  -28.1425   10.2215    6.1382 C   0  0  0  0  0  0  0  0  0  0  0  0
  -26.2188   11.6941    6.2763 C   0  0  0  0  0  0  0  0  0  0  0  0
  -31.2460   10.9489    7.0159 C   0  0  0  0  0  0  0  0  0  0  0  0
  -32.6519    6.2284   10.6677 C   0  0  0  0  0  0  0  0  0  0  0  0
  -26.7255   10.4731    6.1487 C   0  0  0  0  0  0  0  0  0  0  0  0
  1  2  1  0
  1 16  1  0
  3  2  1  0
  3 20  1  0
  4  7  1  0
  5 19  1  0
  6  8  4  0
  7  5  1  0
  8 10  4  0
  9 13  2  0
 11 10  4  0
 12 11  4  0
 13 12  4  0
 13  6  4  0
 14  4  2  0
 16 15  1  0
 17  7  1  0
 17 12  2  0
 18 14  1  0
 18 21  2  0
 19 16  1  0
 21  9  1  0
 21 17  1  0
M  END
$$$$

     RDKit          3D

 29 34  0  0  0  0  0  0  0  0999 V2000
  -27.3286    2.8255    8.9167 N   0  0  0  0  0  0  0  0  0  0  0  0
  -31.2340   11.0581    9.1382 C   0  0  0  0  0  0  0  0  0  0  0  0
  -26.4232    5.8513    7.3926 C   0  0  0  0  0  0  0  0  0  0  0  0
  -27.4012    3.9206    8.5475 C   0  0  0  0  0  0  0  0  0  0  0  0
  -33.0262    8.3168    5.5946 C   0  0  0  0  0  0  0  0  0  0  0  0
  -27.7245    9.2853    6.7093 C   0  0  0  0  0  0  0  0  0  0  0  0
  -26.5068    7.1721    6.9419 C   0  0  0  0  0  0  0  0  0  0  0  0
  -26.5966    9.7858    6.0008 C   0  0  0  0  0  0  0  0  0  0  0  0
  -33.5077   10.1052    8.4132 C   0  0  0  0  0  0  0  0  0  0  0  0
  -26.5931   11.0889    5.5000 C   0  0  0  0  0  0  0  0  0  0  0  0
  -28.8086   11.4491    6.3791 C   0  0  0  0  0  0  0  0  0  0  0  0
  -25.5044    9.0047    5.7962 N   0  0  0  0  0  0  0  0  0  0  0  0
  -27.4896    5.2782    8.0886 C   0  0  0  0  0  0  0  0  0  0  0  0
  -28.7291    7.3455    7.8876 C   0  0  0  0  0  0  0  0  0  0  0  0
  -31.1563   10.4813    7.7387 C   0  0  0  0  0  0  0  0  0  0  0  0
  -34.0669    9.1698    6.3301 C   0  0  0  0  0  0  0  0  0  0  0  0
  -29.9742    9.7055    7.5990 O   0  0  0  0  0  0  0  0  0  0  0  0
  -28.6421    6.0251    8.3360 C   0  0  0  0  0  0  0  0  0  0  0  0
  -27.6686    7.9454    7.1843 C   0  0  0  0  0  0  0  0  0  0  0  0
  -32.0524    9.8211    8.7645 C   0  0  0  0  0  0  0  0  0  0  0  0
  -25.4376    7.7274    6.2462 C   0  0  0  0  0  0  0  0  0  0  0  0
  -33.2890    6.0720    6.4965 C   0  0  0  0  0  0  0  0  0  0  0  0
  -34.5013    7.9440    5.5200 C   0  0  0  0  0  0  0  0  0  0  0  0
  -27.6948   11.9179    5.6866 C   0  0  0  0  0  0  0  0  0  0  0  0
  -34.0918    8.9372    7.7739 N   0  0  0  0  0  0  0  0  0  0  0  0
  -32.3448    7.2497    6.4454 C   0  0  0  0  0  0  0  0  0  0  0  0
  -32.0002   12.2268    9.1191 O   0  0  0  0  0  0  0  0  0  0  0  0
  -28.8430   10.1440    6.8985 C   0  0  0  0  0  0  0  0  0  0  0  0
  -34.6701    6.6616    6.3287 C   0  0  0  0  0  0  0  0  0  0  0  0
  2 27  1  0
  3 13  4  0
  4  1  3  0
  5 26  1  0
  5 16  1  0
  5 23  1  0
  6 28  4  0
  6 19  4  0
  7 19  4  0
  7  3  4  0
  8  6  4  0
  9 25  1  0
 10 24  4  0
 10  8  4  0
 11 28  4  0
 12  8  4  0
 12 21  4  0
 13 18  4  0
 13  4  1  0
 14 18  4  0
 15 17  1  0
 15 20  1  0
 15  2  1  0
 16 25  1  0
 16 23  1  0
 19 14  4  0
 20  9  1  0
 20  2  1  0
 21  7  4  0
 22 29  1  0
 23 29  1  0
 24 11  4  0
 26 22  1  0
 28 17  1  0
M  END
$$$$

     RDKit          3D

 27 29  0  0  0  0  0  0  0  0999 V2000
  -30.7110    7.6795    7.0565 C   0  0  0  0  0  0  0  0  0  0  0  0
  -27.2738   10.3632    6.1426 C   0  0  0  0  0  0  0  0  0  0  0  0
  -33.6526    8.0964    7.3325 N   0  0  0  0  0  0  0  0  0  0  0  0
  -35.8818    7.4280    6.6392 C   0  0  0  0  0  0  0  0  0  0  0  0
  -37.5310    9.3514    6.9973 C   0  0  0  0  0  0  0  0  0  0  0  0
  -28.6929   11.2594    4.4030 C   0  0  0  0  0  0  0  0  0  0  0  0
  -26.5640    7.5608    9.3470 C   0  0  0  0  0  0  0  0  0  0  0  0
  -26.9436    8.7358    8.4636 C   0  0  0  0  0  0  0  0  0  0  0  0
  -37.3053    7.8546    6.8219 C   0  0  0  0  0  0  0  0  0  0  0  0
  -25.6988    9.4321    7.8925 C   0  0  0  0  0  0  0  0  0  0  0  0
  -30.3213    8.1662    5.7367 N   0  0  0  0  0  0  0  0  0  0  0  0
  -31.3622    8.7873    7.8774 C   0  0  0  0  0  0  0  0  0  0  0  0
  -29.5912   10.2089    4.5926 C   0  0  0  0  0  0  0  0  0  0  0  0
  -27.5393   11.3391    5.1810 C   0  0  0  0  0  0  0  0  0  0  0  0
  -28.1797    9.3038    6.3500 C   0  0  0  0  0  0  0  0  0  0  0  0
  -26.0947   10.4708    6.9459 N   0  0  0  0  0  0  0  0  0  0  0  0
  -23.7749    9.1122    9.4448 C   0  0  0  0  0  0  0  0  0  0  0  0
  -36.7546    7.6143    5.5499 O   0  0  0  0  0  0  0  0  0  0  0  0
  -27.8106    8.2144    7.3202 C   0  0  0  0  0  0  0  0  0  0  0  0
  -34.8498    8.5486    6.6495 C   0  0  0  0  0  0  0  0  0  0  0  0
  -24.8588   10.0695    8.9891 C   0  0  0  0  0  0  0  0  0  0  0  0
  -29.3551    9.2239    5.5646 C   0  0  0  0  0  0  0  0  0  0  0  0
  -32.7093    9.2027    7.2962 C   0  0  0  0  0  0  0  0  0  0  0  0
  -31.5161    8.3674    9.1988 O   0  0  0  0  0  0  0  0  0  0  0  0
  -30.1496    6.9243    3.7690 O   0  0  0  0  0  0  0  0  0  0  0  0
  -31.0352    7.6247    4.5884 C   0  0  0  0  0  0  0  0  0  0  0  0
  -22.9588    9.7600   10.5430 C   0  0  0  0  0  0  0  0  0  0  0  0
  1 12  1  0
  2 16  1  0
  2 15  4  0
  4 20  1  0
  4  9  1  0
  6 13  4  0
  8 19  1  0
  8  7  1  0
  9  5  1  0
 10  8  1  0
 10 21  1  0
 11  1  1  0
 11 26  1  0
 12 24  1  0
 13 22  4  0
 14  6  4  0
 14  2  4  0
 15 22  4  0
 15 19  1  0
 16 10  1  0
 17 27  1  0
 18  4  1  0
 18  9  1  0
 20  3  1  0
 21 17  1  0
 22 11  1  0
 23  3  1  0
 23 12  1  0
 26 25  1  0
M  END
$$$$

     RDKit          3D

 37 41  0  0  0  0  0  0  0  0999 V2000
  -33.3685    5.4809    8.4683 C   0  0  0  0  0  0  0  0  0  0  0  0
  -31.5363    9.0731    6.0655 C   0  0  0  0  0  0  0  0  0  0  0  0
  -33.6590    5.4640    5.7270 F   0  0  0  0  0  0  0  0  0  0  0  0
  -35.2339    6.6062    7.4454 C   0  0  0  0  0  0  0  0  0  0  0  0
  -24.5350    4.8974    8.1647 N   0  0  0  0  0  0  0  0  0  0  0  0
  -30.8821   10.2838    6.3641 O   0  0  0  0  0  0  0  0  0  0  0  0
  -26.2151    8.7807    6.8352 C   0  0  0  0  0  0  0  0  0  0  0  0
  -25.8297    5.2585    8.2388 C   0  0  0  0  0  0  0  0  0  0  0  0
  -32.4024    8.6610    7.2434 C   0  0  0  0  0  0  0  0  0  0  0  0
  -30.9609   10.4313    7.7572 C   0  0  0  0  0  0  0  0  0  0  0  0
  -26.3762    6.5558    7.7751 C   0  0  0  0  0  0  0  0  0  0  0  0
  -27.8942   10.1802    6.4615 C   0  0  0  0  0  0  0  0  0  0  0  0
  -26.6339   12.0453    5.3218 C   0  0  0  0  0  0  0  0  0  0  0  0
  -34.8587    5.3685    8.2311 C   0  0  0  0  0  0  0  0  0  0  0  0
  -27.8893   12.8564    5.5739 C   0  0  0  0  0  0  0  0  0  0  0  0
  -24.3661   10.0932    5.9221 O   0  0  0  0  0  0  0  0  0  0  0  0
  -27.7757    6.7421    7.8807 C   0  0  0  0  0  0  0  0  0  0  0  0
  -27.5800    8.9317    6.9563 C   0  0  0  0  0  0  0  0  0  0  0  0
  -33.9892    7.0230    6.6842 C   0  0  0  0  0  0  0  0  0  0  0  0
  -29.0540   12.3060    5.9812 C   0  0  0  0  0  0  0  0  0  0  0  0
  -23.4815    7.9785    8.2751 O   0  0  0  0  0  0  0  0  0  0  0  0
  -33.7874    8.4613    6.8229 N   0  0  0  0  0  0  0  0  0  0  0  0
  -25.6804    9.8885    6.2749 N   0  0  0  0  0  0  0  0  0  0  0  0
  -32.2496    9.7915    8.2315 C   0  0  0  0  0  0  0  0  0  0  0  0
  -30.8997   11.7827    8.1041 O   0  0  0  0  0  0  0  0  0  0  0  0
  -25.5687    7.5985    7.2302 C   0  0  0  0  0  0  0  0  0  0  0  0
  -31.8946    7.3661    7.8403 C   0  0  0  0  0  0  0  0  0  0  0  0
  -26.7028   10.7382    6.0476 C   0  0  0  0  0  0  0  0  0  0  0  0
  -32.8166    6.2963    7.3153 C   0  0  0  0  0  0  0  0  0  0  0  0
  -29.2253   10.8209    6.2286 C   0  0  0  0  0  0  0  0  0  0  0  0
  -25.7894    3.3064    9.0688 C   0  0  0  0  0  0  0  0  0  0  0  0
  -28.3942    7.9315    7.4689 C   0  0  0  0  0  0  0  0  0  0  0  0
  -26.5702    4.3170    8.7726 O   0  0  0  0  0  0  0  0  0  0  0  0
  -35.1156    4.2462    7.4648 F   0  0  0  0  0  0  0  0  0  0  0  0
  -33.3085   10.7020    8.1199 O   0  0  0  0  0  0  0  0  0  0  0  0
  -24.0811    7.4851    7.1163 C   0  0  0  0  0  0  0  0  0  0  0  0
  -24.5072    3.6580    8.6919 C   0  0  0  0  0  0  0  0  0  0  0  0
  2  6  1  0
  5 37  4  0
  6 10  1  0
  7 26  4  0
  7 18  4  0
  8  5  4  0
  8 33  4  0
  9  2  1  0
  9 27  1  0
  9 22  1  0
  9 24  1  0
 10 25  1  0
 10 24  1  0
 11 17  4  0
 11  8  1  0
 12 18  4  0
 13 15  1  0
 13 28  1  0
 14 34  1  0
 14  4  1  0
 14  1  1  0
 15 20  2  0
 18 32  4  0
 19 29  1  0
 19 22  1  0
 19  4  1  0
 20 30  1  0
 23  7  4  0
 23 16  1  0
 24 35  1  0
 26 11  4  0
 28 12  4  0
 28 23  4  0
 29 27  1  0
 29  1  1  0
 30 12  1  0
 32 17  4  0
 33 31  4  0
 36 21  1  0
 36 26  1  0
 37 31  4  0
M  END
$$$$

     RDKit          3D

 27 29  0  0  0  0  0  0  0  0999 V2000
  -35.1196    7.9175    8.1911 C   0  0  0  0  0  0  0  0  0  0  0  0
  -35.1951    5.3535   10.2116 O   0  0  0  0  0  0  0  0  0  0  0  0
  -32.0789    7.4467    7.2566 C   0  0  0  0  0  0  0  0  0  0  0  0
  -28.0728    9.2911    5.6440 C   0  0  0  0  0  0  0  0  0  0  0  0
  -26.0563    8.4406    5.7278 C   0  0  0  0  0  0  0  0  0  0  0  0
  -30.0923    9.6377    7.0544 O   0  0  0  0  0  0  0  0  0  0  0  0
  -32.7445   10.4768    9.3214 O   0  0  0  0  0  0  0  0  0  0  0  0
  -32.8948    8.5711    7.8748 C   0  0  0  0  0  0  0  0  0  0  0  0
  -24.0090    6.6720    8.2808 C   0  0  0  0  0  0  0  0  0  0  0  0
  -26.3154    7.5299    8.3388 C   0  0  0  0  0  0  0  0  0  0  0  0
  -27.2456    8.5962    6.4017 C   0  0  0  0  0  0  0  0  0  0  0  0
  -24.9646    7.8098    6.3228 C   0  0  0  0  0  0  0  0  0  0  0  0
  -31.1958   10.3965    7.5324 C   0  0  0  0  0  0  0  0  0  0  0  0
  -35.8517    5.7958    9.2335 C   0  0  0  0  0  0  0  0  0  0  0  0
  -23.1230    6.1374    8.7990 N   0  0  0  0  0  0  0  0  0  0  0  0
  -29.1947   10.1230    6.0984 C   0  0  0  0  0  0  0  0  0  0  0  0
  -31.9811    9.5921    8.5575 C   0  0  0  0  0  0  0  0  0  0  0  0
  -25.1079    7.3349    7.6380 C   0  0  0  0  0  0  0  0  0  0  0  0
  -27.3759    9.5706    4.3489 C   0  0  0  0  0  0  0  0  0  0  0  0
  -27.3987    8.1802    7.7252 C   0  0  0  0  0  0  0  0  0  0  0  0
  -28.2777   11.8659    4.6171 C   0  0  0  0  0  0  0  0  0  0  0  0
  -26.0423    9.0098    4.5665 N   0  0  0  0  0  0  0  0  0  0  0  0
  -33.8215    8.0024    8.8415 N   0  0  0  0  0  0  0  0  0  0  0  0
  -36.2938    4.9259    8.2458 O   0  0  0  0  0  0  0  0  0  0  0  0
  -36.1250    7.2562    9.1183 C   0  0  0  0  0  0  0  0  0  0  0  0
  -27.3483   11.0544    4.0838 C   0  0  0  0  0  0  0  0  0  0  0  0
  -29.2907   11.3600    5.5811 C   0  0  0  0  0  0  0  0  0  0  0  0
  1 23  1  0
  1 25  1  0
  2 14  2  0
  4 16  1  0
  4 11  2  0
  5 11  4  0
  5 12  4  0
  6 13  1  0
  8  3  1  0
  8 23  1  0
  8 17  1  0
  9 15  3  0
 11 20  4  0
 12 18  4  0
 13 17  1  0
 14 24  1  0
 16  6  1  0
 17  7  1  0
 18 10  4  0
 18  9  1  0
 19 26  1  0
 19  4  1  0
 20 10  4  0
 21 27  1  0
 22 19  1  0
 22  5  2  0
 25 14  1  0
 26 21  2  0
 27 16  2  0
M  END
$$$$

     RDKit          3D

 24 26  0  0  0  0  0  0  0  0999 V2000
  -32.3090    7.1057    9.2068 C   0  0  0  0  0  0  0  0  0  0  0  0
  -28.6507   12.1175    6.2561 C   0  0  0  0  0  0  0  0  0  0  0  0
  -28.0682    6.3319    7.6058 C   0  0  0  0  0  0  0  0  0  0  0  0
  -26.3316   11.6227    5.6369 C   0  0  0  0  0  0  0  0  0  0  0  0
  -27.7731    9.9084    6.5655 C   0  0  0  0  0  0  0  0  0  0  0  0
  -31.2107   11.1814    7.3106 C   0  0  0  0  0  0  0  0  0  0  0  0
  -24.3719    9.3182    5.6136 O   0  0  0  0  0  0  0  0  0  0  0  0
  -30.0709   10.3408    7.1947 O   0  0  0  0  0  0  0  0  0  0  0  0
  -27.6358    8.5685    6.8765 C   0  0  0  0  0  0  0  0  0  0  0  0
  -32.8175    9.2813    6.9309 C   0  0  0  0  0  0  0  0  0  0  0  0
  -33.8418    5.9223    7.6719 C   0  0  0  0  0  0  0  0  0  0  0  0
  -27.4022   12.5295    5.7404 C   0  0  0  0  0  0  0  0  0  0  0  0
  -33.4287   11.2447    8.1971 O   0  0  0  0  0  0  0  0  0  0  0  0
  -33.5336    9.8352    5.7084 C   0  0  0  0  0  0  0  0  0  0  0  0
  -28.5323    7.6452    7.4100 C   0  0  0  0  0  0  0  0  0  0  0  0
  -25.8571    6.9294    6.7314 C   0  0  0  0  0  0  0  0  0  0  0  0
  -32.9217    7.1156    7.8193 C   0  0  0  0  0  0  0  0  0  0  0  0
  -32.3697   10.3878    7.8887 C   0  0  0  0  0  0  0  0  0  0  0  0
  -26.5515   10.3135    6.0603 C   0  0  0  0  0  0  0  0  0  0  0  0
  -28.8513   10.7859    6.6795 C   0  0  0  0  0  0  0  0  0  0  0  0
  -33.6827    8.3397    7.6241 N   0  0  0  0  0  0  0  0  0  0  0  0
  -26.3392    8.2237    6.5468 C   0  0  0  0  0  0  0  0  0  0  0  0
  -25.6767    9.2872    6.0492 N   0  0  0  0  0  0  0  0  0  0  0  0
  -26.7424    5.9771    7.2696 C   0  0  0  0  0  0  0  0  0  0  0  0
  2 20  4  0
  4 12  4  0
  4 19  4  0
  5 20  4  0
  5  9  4  0
  6  8  1  0
  6 18  1  0
  7 23  1  0
  9 15  4  0
 10 14  1  0
 10 21  1  0
 10 18  1  0
 12  2  4  0
 15  3  4  0
 16 24  4  0
 17 21  1  0
 17 11  1  0
 17  1  1  0
 18 13  1  0
 19 23  4  0
 19  5  4  0
 20  8  1  0
 22 16  4  0
 22  9  4  0
 23 22  4  0
 24  3  4  0
M  END
$$$$

     RDKit          3D

 21 23  0  0  0  0  0  0  0  0999 V2000
  -31.1829   11.0142    7.0782 C   0  0  0  0  0  0  0  0  0  0  0  0
  -33.4043   10.5506    7.7789 O   0  0  0  0  0  0  0  0  0  0  0  0
  -28.3676   12.6221    6.5392 C   0  0  0  0  0  0  0  0  0  0  0  0
  -32.0666   10.3727    8.1317 C   0  0  0  0  0  0  0  0  0  0  0  0
  -26.1294   11.5719    6.3525 C   0  0  0  0  0  0  0  0  0  0  0  0
  -32.0956    6.9069    9.4057 C   0  0  0  0  0  0  0  0  0  0  0  0
  -29.0999   11.2985    6.3774 C   0  0  0  0  0  0  0  0  0  0  0  0
  -26.0236    9.1358    5.9696 N   0  0  0  0  0  0  0  0  0  0  0  0
  -32.7826    6.2418   10.5795 C   0  0  0  0  0  0  0  0  0  0  0  0
  -27.0235   12.7412    6.5325 C   0  0  0  0  0  0  0  0  0  0  0  0
  -26.8856    6.9371    5.6018 C   0  0  0  0  0  0  0  0  0  0  0  0
  -26.6869   10.3780    6.1868 C   0  0  0  0  0  0  0  0  0  0  0  0
  -29.3274    6.7764    5.5915 C   0  0  0  0  0  0  0  0  0  0  0  0
  -28.0585    6.1717    5.4795 C   0  0  0  0  0  0  0  0  0  0  0  0
  -31.7584    8.8887    8.2316 C   0  0  0  0  0  0  0  0  0  0  0  0
  -32.4476    8.3142    9.3732 N   0  0  0  0  0  0  0  0  0  0  0  0
  -27.0142    8.3050    5.8369 C   0  0  0  0  0  0  0  0  0  0  0  0
  -29.4441    8.1560    5.8282 C   0  0  0  0  0  0  0  0  0  0  0  0
  -28.2693    8.8956    5.9481 C   0  0  0  0  0  0  0  0  0  0  0  0
  -29.8587   11.0482    7.5230 O   0  0  0  0  0  0  0  0  0  0  0  0
  -28.1132   10.1863    6.1712 C   0  0  0  0  0  0  0  0  0  0  0  0
  1  4  1  0
  3  7  1  0
  4  2  1  0
  5 10  1  0
  5 12  2  0
  6 16  1  0
  6  9  1  0
  7 20  1  0
  8 17  2  0
 10  3  2  0
 11 14  4  0
 12  8  1  0
 12 21  1  0
 14 13  4  0
 15 16  1  0
 15  4  1  0
 17 19  4  0
 17 11  4  0
 18 13  4  0
 19 18  4  0
 20  1  1  0
 21  7  1  0
 21 19  2  0
M  END
$$$$

     RDKit          3D

 29 34  0  0  0  0  0  0  0  0999 V2000
  -32.6395   11.2846    7.8671 O   0  0  0  0  0  0  0  0  0  0  0  0
  -24.8172    7.5301    7.9530 C   0  0  0  0  0  0  0  0  0  0  0  0
  -33.8449    8.8420    8.6424 N   0  0  0  0  0  0  0  0  0  0  0  0
  -27.0918    8.2051    7.4622 C   0  0  0  0  0  0  0  0  0  0  0  0
  -32.2408    8.7251    6.7202 C   0  0  0  0  0  0  0  0  0  0  0  0
  -26.7242    7.3492    9.6707 C   0  0  0  0  0  0  0  0  0  0  0  0
  -27.6535    8.7589    6.4000 C   0  0  0  0  0  0  0  0  0  0  0  0
  -28.9751    9.1703    6.1785 C   0  0  0  0  0  0  0  0  0  0  0  0
  -33.5623    8.3131    7.2944 C   0  0  0  0  0  0  0  0  0  0  0  0
  -30.0406    9.0061    7.2150 C   0  0  0  0  0  0  0  0  0  0  0  0
  -31.8087   10.2514    8.3143 C   0  0  0  0  0  0  0  0  0  0  0  0
  -23.6925    8.0588   11.1733 N   0  0  0  0  0  0  0  0  0  0  0  0
  -36.4540    7.5863    6.6686 C   0  0  0  0  0  0  0  0  0  0  0  0
  -31.0262    8.0461    6.7725 O   0  0  0  0  0  0  0  0  0  0  0  0
  -34.9868    7.4362    4.6124 C   0  0  0  0  0  0  0  0  0  0  0  0
  -24.3862    7.6179   10.3585 C   0  0  0  0  0  0  0  0  0  0  0  0
  -25.7137    8.0312    7.1090 C   0  0  0  0  0  0  0  0  0  0  0  0
  -29.2815    9.7428    4.9303 C   0  0  0  0  0  0  0  0  0  0  0  0
  -26.9664    9.4877    4.1891 C   0  0  0  0  0  0  0  0  0  0  0  0
  -25.4885    8.5087    5.7871 N   0  0  0  0  0  0  0  0  0  0  0  0
  -25.2637    7.0597    9.3279 C   0  0  0  0  0  0  0  0  0  0  0  0
  -34.2652    6.3721    5.1583 O   0  0  0  0  0  0  0  0  0  0  0  0
  -32.4703    8.8804    8.1865 C   0  0  0  0  0  0  0  0  0  0  0  0
  -26.6684    8.9187    5.4257 C   0  0  0  0  0  0  0  0  0  0  0  0
  -35.5516    8.3412    5.7047 C   0  0  0  0  0  0  0  0  0  0  0  0
  -30.5442   10.3035    7.6268 O   0  0  0  0  0  0  0  0  0  0  0  0
  -27.5939    7.8725    8.7938 C   0  0  0  0  0  0  0  0  0  0  0  0
  -34.4785    9.1619    6.4230 C   0  0  0  0  0  0  0  0  0  0  0  0
  -28.2867    9.8992    3.9457 C   0  0  0  0  0  0  0  0  0  0  0  0
  2 21  1  0
  4 27  1  0
  5 14  1  0
  5  9  1  0
  5 23  1  0
  7  8  4  0
  7  4  2  0
  9 28  1  0
  9  3  1  0
  9 23  1  0
 10  8  1  0
 10 26  1  0
 11  1  1  0
 14 10  1  0
 15 22  1  0
 16 12  3  0
 17  4  1  0
 17  2  2  0
 18  8  4  0
 19 29  4  0
 19 24  4  0
 20 17  1  0
 21  6  1  0
 21 16  1  0
 23  3  1  0
 23 11  1  0
 24 20  2  0
 24  7  4  0
 25 15  1  0
 25 13  1  0
 26 11  1  0
 27  6  2  0
 28 25  1  0
 29 18  4  0
M  END
$$$$

     RDKit          3D

 27 31  0  0  0  0  0  0  0  0999 V2000
  -29.7404   10.6122    6.5573 C   0  0  0  0  0  0  0  0  0  0  0  0
  -31.4171    9.9505    9.6421 C   0  0  0  0  0  0  0  0  0  0  0  0
  -26.0895    6.9430    6.8863 C   0  0  0  0  0  0  0  0  0  0  0  0
  -31.8817    8.0138    8.2195 N   0  0  0  0  0  0  0  0  0  0  0  0
  -32.5266    7.5773   10.9673 O   0  0  0  0  0  0  0  0  0  0  0  0
  -27.3203    8.5308    3.8343 N   0  0  0  0  0  0  0  0  0  0  0  0
  -30.9841    7.4806    7.2059 C   0  0  0  0  0  0  0  0  0  0  0  0
  -30.7085   11.7809    4.6519 C   0  0  0  0  0  0  0  0  0  0  0  0
  -29.8777   11.0750    3.7870 C   0  0  0  0  0  0  0  0  0  0  0  0
  -31.1995    7.6037   10.5318 C   0  0  0  0  0  0  0  0  0  0  0  0
  -27.7665    8.5838    7.4709 C   0  0  0  0  0  0  0  0  0  0  0  0
  -31.0489    8.5038    9.3089 C   0  0  0  0  0  0  0  0  0  0  0  0
  -30.6876   11.6574   11.1216 O   0  0  0  0  0  0  0  0  0  0  0  0
  -27.1742    8.2341    5.1490 C   0  0  0  0  0  0  0  0  0  0  0  0
  -31.7016    5.9582    5.8773 C   0  0  0  0  0  0  0  0  0  0  0  0
  -30.2295   10.6561   10.2675 C   0  0  0  0  0  0  0  0  0  0  0  0
  -31.6783    7.4730    5.8595 C   0  0  0  0  0  0  0  0  0  0  0  0
  -26.2531    7.2573    5.5365 C   0  0  0  0  0  0  0  0  0  0  0  0
  -31.0150    5.9650    7.2287 C   0  0  0  0  0  0  0  0  0  0  0  0
  -30.6284   10.9930    8.8455 C   0  0  0  0  0  0  0  0  0  0  0  0
  -27.9513    8.9125    6.1164 C   0  0  0  0  0  0  0  0  0  0  0  0
  -30.6407   11.5497    6.0240 C   0  0  0  0  0  0  0  0  0  0  0  0
  -26.8448    7.6067    7.8533 C   0  0  0  0  0  0  0  0  0  0  0  0
  -28.1899    9.4503    3.4194 N   0  0  0  0  0  0  0  0  0  0  0  0
  -28.8846    9.8882    5.6813 C   0  0  0  0  0  0  0  0  0  0  0  0
  -28.9756   10.1352    4.2872 C   0  0  0  0  0  0  0  0  0  0  0  0
  -29.7018   10.3978    7.9415 O   0  0  0  0  0  0  0  0  0  0  0  0
  1 27  1  0
  2 12  1  0
  2 20  1  0
  2 16  1  0
  3 23  4  0
  6 14  4  0
  7  4  1  0
  7 17  1  0
  7 19  1  0
  8 22  4  0
  9  8  4  0
  9 26  4  0
 10  5  1  0
 11 23  4  0
 12 10  1  0
 12  4  1  0
 14 21  4  0
 14 18  4  0
 16 13  1  0
 17 15  1  0
 18  3  4  0
 19 15  1  0
 20 27  1  0
 20 16  1  0
 21 11  4  0
 22  1  4  0
 24 26  4  0
 24  6  4  0
 25  1  4  0
 25 21  4  0
 26 25  4  0
M  END
$$$$

     RDKit          3D

 37 41  0  0  0  0  0  0  0  0999 V2000
  -32.2285    7.0396    7.8464 C   0  0  0  0  0  0  0  0  0  0  0  0
  -31.5793    9.5060    7.6852 C   0  0  0  0  0  0  0  0  0  0  0  0
  -26.2715   10.0802    6.5421 C   0  0  0  0  0  0  0  0  0  0  0  0
  -28.2445    3.8534    4.4139 O   0  0  0  0  0  0  0  0  0  0  0  0
  -26.4462    8.0497    5.9106 C   0  0  0  0  0  0  0  0  0  0  0  0
  -30.6530   11.6434    8.0244 C   0  0  0  0  0  0  0  0  0  0  0  0
  -33.7403    8.5067    8.3153 N   0  0  0  0  0  0  0  0  0  0  0  0
  -28.0720   12.2459    6.7222 C   0  0  0  0  0  0  0  0  0  0  0  0
  -31.5903    6.9885    6.6194 F   0  0  0  0  0  0  0  0  0  0  0  0
  -28.7396   10.8825    6.5664 C   0  0  0  0  0  0  0  0  0  0  0  0
  -27.6783    9.8303    6.3608 C   0  0  0  0  0  0  0  0  0  0  0  0
  -26.7401   12.4274    6.8297 C   0  0  0  0  0  0  0  0  0  0  0  0
  -32.9503   11.4421    7.5296 O   0  0  0  0  0  0  0  0  0  0  0  0
  -26.2145    6.7242    5.5053 C   0  0  0  0  0  0  0  0  0  0  0  0
  -31.9040   10.8663    8.2490 C   0  0  0  0  0  0  0  0  0  0  0  0
  -26.0031    3.9241    4.5670 F   0  0  0  0  0  0  0  0  0  0  0  0
  -25.5260    8.9024    6.2563 N   0  0  0  0  0  0  0  0  0  0  0  0
  -33.7306    7.1807    7.6982 C   0  0  0  0  0  0  0  0  0  0  0  0
  -34.8471    6.4512    9.9569 C   0  0  0  0  0  0  0  0  0  0  0  0
  -27.7341    8.5740    5.9511 C   0  0  0  0  0  0  0  0  0  0  0  0
  -28.6324    6.5025    5.1677 C   0  0  0  0  0  0  0  0  0  0  0  0
  -32.2900    8.4153    8.4915 C   0  0  0  0  0  0  0  0  0  0  0  0
  -35.6698    7.5587   10.0511 F   0  0  0  0  0  0  0  0  0  0  0  0
  -35.4982    5.3694   10.5174 F   0  0  0  0  0  0  0  0  0  0  0  0
  -34.5506    6.1367    8.4881 C   0  0  0  0  0  0  0  0  0  0  0  0
  -33.6772    6.6777   10.6584 F   0  0  0  0  0  0  0  0  0  0  0  0
  -31.8103    6.0528    8.7231 F   0  0  0  0  0  0  0  0  0  0  0  0
  -27.3378    5.9338    5.1281 C   0  0  0  0  0  0  0  0  0  0  0  0
  -24.8145    6.1818    5.4709 C   0  0  0  0  0  0  0  0  0  0  0  0
  -27.2130    4.5242    4.6871 C   0  0  0  0  0  0  0  0  0  0  0  0
  -28.8418    7.8255    5.5749 C   0  0  0  0  0  0  0  0  0  0  0  0
  -29.5837   10.5865    7.8175 C   0  0  0  0  0  0  0  0  0  0  0  0
  -24.2500    6.2154    6.7323 F   0  0  0  0  0  0  0  0  0  0  0  0
  -25.7852   11.2985    6.7483 C   0  0  0  0  0  0  0  0  0  0  0  0
  -30.1867    9.3137    7.7423 O   0  0  0  0  0  0  0  0  0  0  0  0
  -30.3581   12.3965    9.1607 O   0  0  0  0  0  0  0  0  0  0  0  0
  -24.0365    6.9034    4.5835 F   0  0  0  0  0  0  0  0  0  0  0  0
  1 27  1  0
  1 18  1  0
  1 22  1  0
  2 35  1  0
  2 22  1  0
  2 15  1  0
  3 17  1  0
  3 11  1  0
  5 14  4  0
  5 20  4  0
  6 36  1  0
  6 15  1  0
  9  1  1  0
 10  8  1  0
 10 32  1  0
 11 10  1  0
 11 20  2  0
 12  8  2  0
 14 28  4  0
 15 13  1  0
 16 30  1  0
 17  5  2  0
 18  7  1  0
 18 25  1  0
 19 24  1  0
 19 23  1  0
 20 31  4  0
 22  7  1  0
 25 19  1  0
 26 19  1  0
 28 30  1  0
 28 21  4  0
 29 14  1  0
 29 33  1  0
 30  4  2  0
 31 21  4  0
 32 35  1  0
 32  6  1  0
 34 12  1  0
 34  3  2  0
 37 29  1  0
M  END
$$$$

     RDKit          3D

 27 30  0  0  0  0  0  0  0  0999 V2000
  -30.3451   10.2375    7.0432 N   0  0  0  0  0  0  0  0  0  0  0  0
  -28.3430    7.7776    7.8026 C   0  0  0  0  0  0  0  0  0  0  0  0
  -32.2491    8.9654    7.5831 C   0  0  0  0  0  0  0  0  0  0  0  0
  -33.6018    6.9698    7.4752 C   0  0  0  0  0  0  0  0  0  0  0  0
  -26.7528   11.6328    4.8929 C   0  0  0  0  0  0  0  0  0  0  0  0
  -25.6302    5.2369    8.3223 C   0  0  0  0  0  0  0  0  0  0  0  0
  -32.4360    6.2013    7.5726 O   0  0  0  0  0  0  0  0  0  0  0  0
  -34.2202    7.1820    8.8621 C   0  0  0  0  0  0  0  0  0  0  0  0
  -34.4510    5.8728    9.6030 C   0  0  0  0  0  0  0  0  0  0  0  0
  -26.3607    8.4376    6.5770 C   0  0  0  0  0  0  0  0  0  0  0  0
  -26.8267   10.3444    5.6517 C   0  0  0  0  0  0  0  0  0  0  0  0
  -30.9509    8.9429    6.8038 C   0  0  0  0  0  0  0  0  0  0  0  0
  -33.4356   10.9226    6.8090 O   0  0  0  0  0  0  0  0  0  0  0  0
  -29.1478   10.6700    6.3835 C   0  0  0  0  0  0  0  0  0  0  0  0
  -28.0386    9.9195    6.3430 C   0  0  0  0  0  0  0  0  0  0  0  0
  -34.5928    6.2381    6.5880 C   0  0  0  0  0  0  0  0  0  0  0  0
  -32.5809   10.4433    7.8057 C   0  0  0  0  0  0  0  0  0  0  0  0
  -26.3193    6.4057    7.8538 C   0  0  0  0  0  0  0  0  0  0  0  0
  -27.6533    6.6380    8.2493 C   0  0  0  0  0  0  0  0  0  0  0  0
  -25.0747    4.2946    8.7000 N   0  0  0  0  0  0  0  0  0  0  0  0
  -25.8497    9.4978    5.7683 N   0  0  0  0  0  0  0  0  0  0  0  0
  -28.0254   12.4391    5.0544 C   0  0  0  0  0  0  0  0  0  0  0  0
  -25.6556    7.3181    7.0146 C   0  0  0  0  0  0  0  0  0  0  0  0
  -27.6698    8.6516    6.9510 C   0  0  0  0  0  0  0  0  0  0  0  0
  -29.1070   11.9983    5.7220 C   0  0  0  0  0  0  0  0  0  0  0  0
  -33.3042    8.2624    6.8516 N   0  0  0  0  0  0  0  0  0  0  0  0
  -31.2508   11.1669    7.6934 C   0  0  0  0  0  0  0  0  0  0  0  0
  1 27  1  0
  2 19  4  0
  3 26  1  0
  3 17  1  0
  4 16  1  0
  4 26  1  0
  4  7  1  0
  4  8  1  0
  5 22  1  0
  5 11  1  0
  6 20  3  0
  9  8  1  0
 10 24  4  0
 10 23  4  0
 11 21  2  0
 11 15  1  0
 12  1  1  0
 12  3  1  0
 14 15  2  0
 14  1  1  0
 15 24  1  0
 17 13  1  0
 18 19  4  0
 18  6  1  0
 21 10  1  0
 22 25  2  0
 23 18  4  0
 24  2  4  0
 25 14  1  0
 27 17  1  0
M  END
$$$$

     RDKit          3D

 24 26  0  0  0  0  0  0  0  0999 V2000
  -35.6831    7.5362    6.7653 C   0  0  0  0  0  0  0  0  0  0  0  0
  -31.4494    9.1005    9.6675 O   0  0  0  0  0  0  0  0  0  0  0  0
  -26.1376    9.0709   10.0701 C   0  0  0  0  0  0  0  0  0  0  0  0
  -25.9420    9.9854    7.8350 C   0  0  0  0  0  0  0  0  0  0  0  0
  -27.9288    8.7590    8.4760 C   0  0  0  0  0  0  0  0  0  0  0  0
  -25.5434   10.5203    5.5086 O   0  0  0  0  0  0  0  0  0  0  0  0
  -27.3941    8.5545    9.7501 C   0  0  0  0  0  0  0  0  0  0  0  0
  -28.5447    9.9758    3.4412 C   0  0  0  0  0  0  0  0  0  0  0  0
  -25.1751   10.8188    6.8547 C   0  0  0  0  0  0  0  0  0  0  0  0
  -29.9936    8.9055    6.7018 O   0  0  0  0  0  0  0  0  0  0  0  0
  -32.1358    8.0848    7.6502 C   0  0  0  0  0  0  0  0  0  0  0  0
  -29.0765    9.3641    5.7394 C   0  0  0  0  0  0  0  0  0  0  0  0
  -35.7603    6.0308    6.9329 C   0  0  0  0  0  0  0  0  0  0  0  0
  -27.7477    9.6827    6.1235 C   0  0  0  0  0  0  0  0  0  0  0  0
  -27.2197    9.4848    7.5051 C   0  0  0  0  0  0  0  0  0  0  0  0
  -27.2462   10.3042    3.8203 C   0  0  0  0  0  0  0  0  0  0  0  0
  -26.8500   10.1745    5.1518 C   0  0  0  0  0  0  0  0  0  0  0  0
  -25.4154    9.7892    9.1153 C   0  0  0  0  0  0  0  0  0  0  0  0
  -31.3484    8.5940    6.4990 C   0  0  0  0  0  0  0  0  0  0  0  0
  -33.4099    7.8198    7.5985 N   0  0  0  0  0  0  0  0  0  0  0  0
  -31.4422    7.9002    8.9571 C   0  0  0  0  0  0  0  0  0  0  0  0
  -34.2648    7.9560    6.4264 C   0  0  0  0  0  0  0  0  0  0  0  0
  -31.8827    8.7453    5.3673 O   0  0  0  0  0  0  0  0  0  0  0  0
  -29.4516    9.5157    4.3940 C   0  0  0  0  0  0  0  0  0  0  0  0
  1 13  1  0
  3  7  4  0
  4 15  4  0
  4 18  4  0
  5  7  4  0
  6 17  1  0
  6  9  1  0
  8 24  4  0
  9  4  1  0
 10 19  1  0
 11 20  2  3
 11 21  1  0
 12 10  1  0
 14 12  4  0
 14 15  1  0
 15  5  4  0
 16  8  4  0
 16 17  4  0
 17 14  4  0
 18  3  4  0
 19 11  1  0
 21  2  1  0
 22 20  1  0
 22  1  1  0
 23 19  2  0
 24 12  4  0
M  END
$$$$

     RDKit          3D

 21 23  0  0  0  0  0  0  0  0999 V2000
  -34.5249    6.0189    8.3429 C   0  0  0  0  0  0  0  0  0  0  0  0
  -30.0523   10.4320    7.2399 O   0  0  0  0  0  0  0  0  0  0  0  0
  -26.5125   10.5698    6.1767 C   0  0  0  0  0  0  0  0  0  0  0  0
  -33.4809    8.1904    8.1038 N   0  0  0  0  0  0  0  0  0  0  0  0
  -33.5606   11.0864    7.8019 O   0  0  0  0  0  0  0  0  0  0  0  0
  -27.6660   12.4115    5.1544 C   0  0  0  0  0  0  0  0  0  0  0  0
  -28.8788   10.8692    6.6180 C   0  0  0  0  0  0  0  0  0  0  0  0
  -26.4799   11.6834    5.3390 C   0  0  0  0  0  0  0  0  0  0  0  0
  -26.8092    6.4107    6.9197 C   0  0  0  0  0  0  0  0  0  0  0  0
  -27.4317    9.0623    7.4709 C   0  0  0  0  0  0  0  0  0  0  0  0
  -27.6713   10.1861    6.8166 C   0  0  0  0  0  0  0  0  0  0  0  0
  -32.3805   10.3435    7.8366 C   0  0  0  0  0  0  0  0  0  0  0  0
  -28.8582   12.0060    5.7840 C   0  0  0  0  0  0  0  0  0  0  0  0
  -25.8498    7.3303    6.7185 C   0  0  0  0  0  0  0  0  0  0  0  0
  -33.6407    6.8913    7.4773 C   0  0  0  0  0  0  0  0  0  0  0  0
  -25.9870    8.7210    7.2836 C   0  0  0  0  0  0  0  0  0  0  0  0
  -28.4122    8.0340    7.8398 C   0  0  0  0  0  0  0  0  0  0  0  0
  -25.5240    9.7563    6.3613 N   0  0  0  0  0  0  0  0  0  0  0  0
  -32.6223    8.9715    7.2311 C   0  0  0  0  0  0  0  0  0  0  0  0
  -28.0893    6.7583    7.5924 C   0  0  0  0  0  0  0  0  0  0  0  0
  -31.3071   11.0731    7.0517 C   0  0  0  0  0  0  0  0  0  0  0  0
  2 21  1  0
  3 18  2  0
  3 11  4  0
  6 13  4  0
  7  2  1  0
  8  6  4  0
  8  3  4  0
  9 20  1  0
 10 17  1  0
 11  7  4  0
 11 10  2  0
 12  5  1  0
 13  7  4  0
 14  9  2  0
 15  4  1  0
 15  1  1  0
 16 10  1  0
 16 14  1  0
 17 20  2  0
 18 16  1  0
 19  4  1  0
 19 12  1  0
 21 12  1  0
M  END
$$$$

     RDKit          3D

 29 32  0  0  0  0  0  0  0  0999 V2000
  -25.9999    6.5944   11.1793 O   0  0  0  0  0  0  0  0  0  0  0  0
  -29.3762    9.6907    3.3875 C   0  0  0  0  0  0  0  0  0  0  0  0
  -29.9400    8.1528    7.6899 C   0  0  0  0  0  0  0  0  0  0  0  0
  -24.2891    6.8666   10.1448 N   0  0  0  0  0  0  0  0  0  0  0  0
  -32.4981    9.9687    6.0002 C   0  0  0  0  0  0  0  0  0  0  0  0
  -25.8848    8.7632    5.2848 O   0  0  0  0  0  0  0  0  0  0  0  0
  -26.3164    7.5234    8.6989 C   0  0  0  0  0  0  0  0  0  0  0  0
  -26.3518    8.3572    6.4490 C   0  0  0  0  0  0  0  0  0  0  0  0
  -33.6507   10.0028    6.9106 N   0  0  0  0  0  0  0  0  0  0  0  0
  -26.9309    9.1006    4.5580 C   0  0  0  0  0  0  0  0  0  0  0  0
  -26.9313    9.5888    3.2536 C   0  0  0  0  0  0  0  0  0  0  0  0
  -29.3513    9.1963    4.7038 C   0  0  0  0  0  0  0  0  0  0  0  0
  -33.3811    9.3095    9.9227 O   0  0  0  0  0  0  0  0  0  0  0  0
  -27.7307    8.4277    6.4897 C   0  0  0  0  0  0  0  0  0  0  0  0
  -35.3174    5.1645    9.0784 C   0  0  0  0  0  0  0  0  0  0  0  0
  -24.6818    6.4278   11.4088 C   0  0  0  0  0  0  0  0  0  0  0  0
  -31.6905    9.3963    8.2335 C   0  0  0  0  0  0  0  0  0  0  0  0
  -30.3027    9.4424    8.0853 O   0  0  0  0  0  0  0  0  0  0  0  0
  -35.3163    5.8775    7.7427 C   0  0  0  0  0  0  0  0  0  0  0  0
  -28.1052    8.9125    5.2574 C   0  0  0  0  0  0  0  0  0  0  0  0
  -25.5850    7.0473    9.8731 C   0  0  0  0  0  0  0  0  0  0  0  0
  -28.1762    9.8854    2.6683 C   0  0  0  0  0  0  0  0  0  0  0  0
  -33.9232    6.5470    5.8130 C   0  0  0  0  0  0  0  0  0  0  0  0
  -25.6134    7.9066    7.5402 C   0  0  0  0  0  0  0  0  0  0  0  0
  -28.4550    8.0485    7.6234 C   0  0  0  0  0  0  0  0  0  0  0  0
  -27.7265    7.5992    8.7388 C   0  0  0  0  0  0  0  0  0  0  0  0
  -33.9241    5.8349    7.1490 C   0  0  0  0  0  0  0  0  0  0  0  0
  -32.0437    9.6342    9.6935 C   0  0  0  0  0  0  0  0  0  0  0  0
  -32.3297   10.4671    7.3611 C   0  0  0  0  0  0  0  0  0  0  0  0
  1 16  1  0
  2 12  4  0
  3 18  1  0
  3 25  1  0
  4 16  1  0
  5  9  1  0
  6  8  4  0
  7 26  4  0
  7 21  1  0
  8 14  4  0
  8 24  4  0
 10  6  4  0
 10 20  4  0
 11 22  4  0
 11 10  4  0
 14 25  4  0
 17 28  1  0
 18 17  1  0
 19 15  1  0
 20 12  4  0
 20 14  4  0
 21  4  2  0
 21  1  1  0
 22  2  4  0
 23 27  1  0
 24  7  4  0
 25 26  4  0
 27 19  1  0
 28 13  1  0
 29  5  1  0
 29  9  1  0
 29 17  1  0
M  END
$$$$

     RDKit          3D

 27 30  0  0  0  0  0  0  0  0999 V2000
  -25.3172   10.1897    6.5454 N   0  0  0  0  0  0  0  0  0  0  0  0
  -33.2941    7.1928    5.7019 C   0  0  0  0  0  0  0  0  0  0  0  0
  -28.0011   12.8187    6.7592 C   0  0  0  0  0  0  0  0  0  0  0  0
  -27.8064   10.0180    6.6539 C   0  0  0  0  0  0  0  0  0  0  0  0
  -25.2753    8.7422    6.4971 C   0  0  0  0  0  0  0  0  0  0  0  0
  -26.6241   10.8425    6.6179 C   0  0  0  0  0  0  0  0  0  0  0  0
  -26.7367   12.2306    6.6687 C   0  0  0  0  0  0  0  0  0  0  0  0
  -36.7848    6.1244    5.5363 C   0  0  0  0  0  0  0  0  0  0  0  0
  -26.4405    8.2965    6.2273 C   0  0  0  0  0  0  0  0  0  0  0  0
  -25.4436    7.4692    8.6747 C   0  0  0  0  0  0  0  0  0  0  0  0
  -34.7334    7.3811    5.7683 N   0  0  0  0  0  0  0  0  0  0  0  0
  -31.5276   10.3645    6.9013 C   0  0  0  0  0  0  0  0  0  0  0  0
  -32.5941    8.5374    5.5924 C   0  0  0  0  0  0  0  0  0  0  0  0
  -29.1533   12.0253    6.8048 C   0  0  0  0  0  0  0  0  0  0  0  0
  -30.2156    9.8239    6.8082 O   0  0  0  0  0  0  0  0  0  0  0  0
  -24.7161    8.0780    7.6925 C   0  0  0  0  0  0  0  0  0  0  0  0
  -23.9696    7.8094   10.4891 F   0  0  0  0  0  0  0  0  0  0  0  0
  -29.0683   10.6228    6.7575 C   0  0  0  0  0  0  0  0  0  0  0  0
  -27.9055    7.8276    7.9041 C   0  0  0  0  0  0  0  0  0  0  0  0
  -27.6327    8.5225    6.6264 C   0  0  0  0  0  0  0  0  0  0  0  0
  -26.9514    7.3774    8.7643 C   0  0  0  0  0  0  0  0  0  0  0  0
  -33.8008    9.7744    7.2426 O   0  0  0  0  0  0  0  0  0  0  0  0
  -36.3939    6.1254    6.9975 C   0  0  0  0  0  0  0  0  0  0  0  0
  -24.6935    6.8488    9.8059 C   0  0  0  0  0  0  0  0  0  0  0  0
  -35.3220    6.0643    5.9276 C   0  0  0  0  0  0  0  0  0  0  0  0
  -32.5470    9.2421    6.9411 C   0  0  0  0  0  0  0  0  0  0  0  0
  -23.8431    5.8625    9.3389 F   0  0  0  0  0  0  0  0  0  0  0  0
  1  5  1  0
  2 13  1  0
  2 11  1  0
  3 14  4  0
  4 18  4  0
  4 20  1  0
  5  9  2  0
  5 16  1  0
  6  1  1  0
  6  4  4  0
  7  3  4  0
  7  6  4  0
  8 25  1  0
  8 23  1  0
  9 20  2  0
 10 21  1  0
 10 24  1  0
 11 25  1  0
 12 26  1  0
 13 26  1  0
 14 18  4  0
 15 12  1  0
 16 10  2  0
 18 15  1  0
 19 21  2  0
 20 19  1  0
 24 17  1  0
 25 23  1  0
 26 22  1  0
 27 24  1  0
M  END
$$$$

     RDKit          3D

 37 40  0  0  0  0  0  0  0  0999 V2000
  -33.6975   12.6533    8.1263 O   0  0  0  0  0  0  0  0  0  0  0  0
  -31.1907    5.1008   11.5275 O   0  0  0  0  0  0  0  0  0  0  0  0
  -32.5080    6.4765    8.9871 C   0  0  0  0  0  0  0  0  0  0  0  0
  -31.0500    6.6989    9.3746 C   0  0  0  0  0  0  0  0  0  0  0  0
  -28.2228    6.9731    5.8778 C   0  0  0  0  0  0  0  0  0  0  0  0
  -30.6148    4.0487    9.3898 O   0  0  0  0  0  0  0  0  0  0  0  0
  -29.4444    3.0029    6.8619 F   0  0  0  0  0  0  0  0  0  0  0  0
  -29.7510    5.1087    5.8333 C   0  0  0  0  0  0  0  0  0  0  0  0
  -32.2384   10.6557    7.8106 C   0  0  0  0  0  0  0  0  0  0  0  0
  -30.8429   10.6122    6.1083 N   0  0  0  0  0  0  0  0  0  0  0  0
  -30.8582    9.1739    9.3371 C   0  0  0  0  0  0  0  0  0  0  0  0
  -31.0827   11.6029    5.0713 C   0  0  0  0  0  0  0  0  0  0  0  0
  -26.7716    9.6912    7.1995 C   0  0  0  0  0  0  0  0  0  0  0  0
  -29.5834    3.1021    4.6059 F   0  0  0  0  0  0  0  0  0  0  0  0
  -28.7429    5.4995   10.5995 N   0  0  0  0  0  0  0  0  0  0  0  0
  -33.3454    8.7615    9.0252 N   0  0  0  0  0  0  0  0  0  0  0  0
  -33.5410   11.3681    7.6264 C   0  0  0  0  0  0  0  0  0  0  0  0
  -28.8143    9.0827    5.9627 C   0  0  0  0  0  0  0  0  0  0  0  0
  -30.6026    7.3997    5.8767 C   0  0  0  0  0  0  0  0  0  0  0  0
  -27.3677    4.7407    5.8748 F   0  0  0  0  0  0  0  0  0  0  0  0
  -30.4268    5.2728   10.2436 S   0  0  0  0  0  0  0  0  0  0  0  0
  -27.4556   10.6895    7.7832 C   0  0  0  0  0  0  0  0  0  0  0  0
  -33.0406    7.6319    8.1535 C   0  0  0  0  0  0  0  0  0  0  0  0
  -27.3202    8.9954    5.9808 C   0  0  0  0  0  0  0  0  0  0  0  0
  -28.4251    5.5920    5.8568 C   0  0  0  0  0  0  0  0  0  0  0  0
  -28.8235   11.0592    7.3339 C   0  0  0  0  0  0  0  0  0  0  0  0
  -28.0339    5.6111    9.3362 C   0  0  0  0  0  0  0  0  0  0  0  0
  -32.2539    9.7492    9.0482 C   0  0  0  0  0  0  0  0  0  0  0  0
  -30.0417    3.6443    5.7922 C   0  0  0  0  0  0  0  0  0  0  0  0
  -30.8297    6.0147    5.8472 C   0  0  0  0  0  0  0  0  0  0  0  0
  -31.8899    9.9402    6.6536 O   0  0  0  0  0  0  0  0  0  0  0  0
  -28.2607    4.2907   11.2448 C   0  0  0  0  0  0  0  0  0  0  0  0
  -34.5061   10.7997    7.0504 O   0  0  0  0  0  0  0  0  0  0  0  0
  -27.0729    7.5551    5.9899 N   0  0  0  0  0  0  0  0  0  0  0  0
  -30.8774    7.9456   10.2334 C   0  0  0  0  0  0  0  0  0  0  0  0
  -29.4982   10.2859    6.4708 C   0  0  0  0  0  0  0  0  0  0  0  0
  -29.2835    7.8506    5.8661 C   0  0  0  0  0  0  0  0  0  0  0  0
  3  4  1  0
  4 21  1  0
  4 35  1  0
  5 25  4  0
  5 37  4  0
  6 21  2  0
  8 30  4  0
  8 29  1  0
  9 31  1  0
  9 17  1  0
 10 31  1  0
 11 35  1  0
 12 10  1  0
 13 22  2  0
 14 29  1  0
 15 32  1  0
 16 28  1  0
 17  1  1  0
 18 37  2  0
 19 30  4  0
 20 25  1  0
 21  2  2  0
 21 15  1  0
 22 26  1  0
 23 16  1  0
 23  3  1  0
 24 13  1  0
 24 34  1  0
 24 18  1  0
 25  8  4  0
 26 36  2  0
 27 15  1  0
 28  9  1  0
 28 11  1  0
 29  7  1  0
 33 17  2  0
 34  5  2  0
 36 18  1  0
 36 10  1  0
 37 19  4  0
M  END
$$$$

     RDKit          3D

 27 30  0  0  0  0  0  0  0  0999 V2000
  -33.0652    7.0441    7.0998 C   0  0  0  0  0  0  0  0  0  0  0  0
  -31.9019    7.9387    7.2575 C   0  0  0  0  0  0  0  0  0  0  0  0
  -29.9260    7.0459    8.2720 O   0  0  0  0  0  0  0  0  0  0  0  0
  -33.4272    9.4678    8.3826 O   0  0  0  0  0  0  0  0  0  0  0  0
  -31.5470   10.4518    7.2997 C   0  0  0  0  0  0  0  0  0  0  0  0
  -27.7814   13.1938    5.1612 C   0  0  0  0  0  0  0  0  0  0  0  0
  -29.9458   12.4426    5.9315 C   0  0  0  0  0  0  0  0  0  0  0  0
  -26.0068    7.9249    7.0421 C   0  0  0  0  0  0  0  0  0  0  0  0
  -27.3026    9.9825    7.0945 C   0  0  0  0  0  0  0  0  0  0  0  0
  -33.7975    5.0110    5.8713 C   0  0  0  0  0  0  0  0  0  0  0  0
  -29.1626   13.3735    5.2464 C   0  0  0  0  0  0  0  0  0  0  0  0
  -26.4384    9.1157    4.8596 C   0  0  0  0  0  0  0  0  0  0  0  0
  -32.6635    7.9429    5.9991 N   0  0  0  0  0  0  0  0  0  0  0  0
  -26.8874    8.7334    9.1404 C   0  0  0  0  0  0  0  0  0  0  0  0
  -32.5860    4.7816    8.0097 C   0  0  0  0  0  0  0  0  0  0  0  0
  -32.7093    5.6049    6.7431 C   0  0  0  0  0  0  0  0  0  0  0  0
  -26.1629    7.7842    8.4213 C   0  0  0  0  0  0  0  0  0  0  0  0
  -27.4588    9.8206    8.4798 C   0  0  0  0  0  0  0  0  0  0  0  0
  -29.3544   11.3217    6.5375 C   0  0  0  0  0  0  0  0  0  0  0  0
  -27.9597   11.1391    6.4473 C   0  0  0  0  0  0  0  0  0  0  0  0
  -30.4840    7.4082    7.0462 C   0  0  0  0  0  0  0  0  0  0  0  0
  -26.5543    9.0272    6.3621 C   0  0  0  0  0  0  0  0  0  0  0  0
  -25.1911    8.5424    4.3438 C   0  0  0  0  0  0  0  0  0  0  0  0
  -25.3095    9.9952    4.5098 N   0  0  0  0  0  0  0  0  0  0  0  0
  -27.1837   12.0840    5.7616 C   0  0  0  0  0  0  0  0  0  0  0  0
  -32.0867    9.2448    8.0541 C   0  0  0  0  0  0  0  0  0  0  0  0
  -30.1305   10.3786    7.2193 O   0  0  0  0  0  0  0  0  0  0  0  0
  1 16  1  0
  1  2  1  0
  1 13  1  0
  2 21  1  0
  2 13  1  0
  2 26  1  0
  3 21  1  0
  5 26  1  0
  6 11  4  0
  6 25  4  0
  7 19  4  0
  8 17  4  0
  9 18  4  0
 10 16  1  0
 11  7  4  0
 12 23  1  0
 12 22  1  0
 16 15  1  0
 17 14  4  0
 18 14  4  0
 19 27  1  0
 20 19  4  0
 20  9  1  0
 22  9  4  0
 22  8  4  0
 24 12  1  0
 24 23  1  0
 25 20  4  0
 26  4  1  0
 27  5  1  0
M  END
$$$$

     RDKit          3D

 24 27  0  0  0  0  0  0  0  0999 V2000
  -28.4526    7.7282    6.7321 C   0  0  0  0  0  0  0  0  0  0  0  0
  -27.8919    9.0933    6.5701 C   0  0  0  0  0  0  0  0  0  0  0  0
  -33.3310    7.5931    8.4270 C   0  0  0  0  0  0  0  0  0  0  0  0
  -34.0271   10.1133    6.7798 N   0  0  0  0  0  0  0  0  0  0  0  0
  -34.1248    7.4381    5.4757 O   0  0  0  0  0  0  0  0  0  0  0  0
  -28.5198   10.3383    6.6342 C   0  0  0  0  0  0  0  0  0  0  0  0
  -33.0855    8.3507    5.2912 C   0  0  0  0  0  0  0  0  0  0  0  0
  -32.7405   10.6423    6.2821 C   0  0  0  0  0  0  0  0  0  0  0  0
  -29.8727   10.4211    6.9708 O   0  0  0  0  0  0  0  0  0  0  0  0
  -27.1198    5.5507    7.0354 C   0  0  0  0  0  0  0  0  0  0  0  0
  -32.3473    8.5777    7.8214 C   0  0  0  0  0  0  0  0  0  0  0  0
  -26.1464    7.6170    6.2151 N   0  0  0  0  0  0  0  0  0  0  0  0
  -27.9249    5.2262    8.0561 C   0  0  0  0  0  0  0  0  0  0  0  0
  -27.1975    6.9210    6.5219 C   0  0  0  0  0  0  0  0  0  0  0  0
  -29.0242    7.4360    8.0952 C   0  0  0  0  0  0  0  0  0  0  0  0
  -32.8993    9.2032    6.5372 C   0  0  0  0  0  0  0  0  0  0  0  0
  -28.8221    6.2400    8.6728 C   0  0  0  0  0  0  0  0  0  0  0  0
  -25.7855   10.0837    5.9211 C   0  0  0  0  0  0  0  0  0  0  0  0
  -32.0289   11.4030    7.3988 C   0  0  0  0  0  0  0  0  0  0  0  0
  -26.3853   11.3521    5.9965 C   0  0  0  0  0  0  0  0  0  0  0  0
  -32.6647   12.6266    7.6069 O   0  0  0  0  0  0  0  0  0  0  0  0
  -27.7441   11.4808    6.3476 C   0  0  0  0  0  0  0  0  0  0  0  0
  -26.5746    8.9694    6.1999 C   0  0  0  0  0  0  0  0  0  0  0  0
  -30.5795   11.6533    7.0202 C   0  0  0  0  0  0  0  0  0  0  0  0
  1 15  1  0
  2  1  1  0
  5  7  1  0
  6  2  4  0
  6  9  1  0
  8  4  1  0
  8 19  1  0
  9 24  1  0
 10 13  2  0
 11  3  1  0
 12 14  2  0
 13 17  1  0
 14  1  1  0
 14 10  1  0
 15 17  2  0
 16  7  1  0
 16  8  1  0
 16 11  1  0
 16  4  1  0
 18 20  4  0
 18 23  4  0
 19 21  1  0
 20 22  4  0
 22  6  4  0
 23 12  1  0
 23  2  4  0
 24 19  1  0
M  END
$$$$

     RDKit          3D

 21 21  0  0  0  0  0  0  0  0999 V2000
  -27.2234    8.5171    6.5582 C   0  0  0  0  0  0  0  0  0  0  0  0
  -29.8421    9.8180    6.7892 O   0  0  0  0  0  0  0  0  0  0  0  0
  -28.8156   10.3152    5.9763 C   0  0  0  0  0  0  0  0  0  0  0  0
  -33.8359    8.4394    8.1396 N   0  0  0  0  0  0  0  0  0  0  0  0
  -36.0092    7.4752    8.4814 C   0  0  0  0  0  0  0  0  0  0  0  0
  -26.7940   11.7442    4.1591 C   0  0  0  0  0  0  0  0  0  0  0  0
  -28.7608   11.6255    5.6768 C   0  0  0  0  0  0  0  0  0  0  0  0
  -26.1281    8.9746    7.3183 C   0  0  0  0  0  0  0  0  0  0  0  0
  -27.7812   12.3311    4.8237 C   0  0  0  0  0  0  0  0  0  0  0  0
  -32.5063   10.6447    9.0498 O   0  0  0  0  0  0  0  0  0  0  0  0
  -32.7933    9.0075    7.3205 C   0  0  0  0  0  0  0  0  0  0  0  0
  -34.9449    8.0594    7.6196 C   0  0  0  0  0  0  0  0  0  0  0  0
  -26.2091    6.9478    8.6480 C   0  0  0  0  0  0  0  0  0  0  0  0
  -32.0746    7.8924    6.5730 C   0  0  0  0  0  0  0  0  0  0  0  0
  -25.4789   10.2881    7.0427 C   0  0  0  0  0  0  0  0  0  0  0  0
  -31.8086    9.7927    8.1915 C   0  0  0  0  0  0  0  0  0  0  0  0
  -27.2971    6.4949    7.8983 C   0  0  0  0  0  0  0  0  0  0  0  0
  -30.8703   10.6338    7.3386 C   0  0  0  0  0  0  0  0  0  0  0  0
  -27.8116    9.3346    5.4500 C   0  0  0  0  0  0  0  0  0  0  0  0
  -25.6272    8.1846    8.3582 C   0  0  0  0  0  0  0  0  0  0  0  0
  -27.8030    7.2783    6.8580 C   0  0  0  0  0  0  0  0  0  0  0  0
  1 21  4  0
  2 18  1  0
  3  2  1  0
  6  9  2  0
  7  3  2  3
  8 20  4  0
  8  1  4  0
  9  7  1  0
 11 14  1  0
 11  4  1  0
 11 16  1  0
 12  4  2  3
 12  5  1  0
 13 17  4  0
 15  8  1  0
 16 10  1  0
 18 16  1  0
 19  3  1  0
 19  1  1  0
 20 13  4  0
 21 17  4  0
M  END
$$$$

     RDKit          3D

 29 31  0  0  0  0  0  0  0  0999 V2000
  -23.6731    5.5603    7.4902 O   0  0  0  0  0  0  0  0  0  0  0  0
  -25.8333    8.5345    6.7122 C   0  0  0  0  0  0  0  0  0  0  0  0
  -30.3216    9.8378    6.7535 C   0  0  0  0  0  0  0  0  0  0  0  0
  -25.4408    7.2763    7.1901 C   0  0  0  0  0  0  0  0  0  0  0  0
  -33.3782   11.1663    7.5016 O   0  0  0  0  0  0  0  0  0  0  0  0
  -33.6265    5.6671    9.3931 C   0  0  0  0  0  0  0  0  0  0  0  0
  -34.0318    4.3305    7.3685 C   0  0  0  0  0  0  0  0  0  0  0  0
  -32.3463   10.3020    7.8654 C   0  0  0  0  0  0  0  0  0  0  0  0
  -33.2162    6.5522    5.9416 O   0  0  0  0  0  0  0  0  0  0  0  0
  -31.0252   10.9059    7.4970 C   0  0  0  0  0  0  0  0  0  0  0  0
  -26.3800    6.4652    7.8385 C   0  0  0  0  0  0  0  0  0  0  0  0
  -28.3295   12.8480    5.4020 C   0  0  0  0  0  0  0  0  0  0  0  0
  -28.0781    8.1602    7.5284 C   0  0  0  0  0  0  0  0  0  0  0  0
  -34.1794    5.7141    7.9799 C   0  0  0  0  0  0  0  0  0  0  0  0
  -31.0931    8.6599    6.7517 O   0  0  0  0  0  0  0  0  0  0  0  0
  -33.4536    6.7530    7.1653 C   0  0  0  0  0  0  0  0  0  0  0  0
  -27.5587   10.3217    6.3666 C   0  0  0  0  0  0  0  0  0  0  0  0
  -26.6317   11.1514    5.7130 C   0  0  0  0  0  0  0  0  0  0  0  0
  -29.2611   12.0335    6.0498 C   0  0  0  0  0  0  0  0  0  0  0  0
  -29.9761   10.1681    8.0778 O   0  0  0  0  0  0  0  0  0  0  0  0
  -35.6524    6.0659    8.0407 C   0  0  0  0  0  0  0  0  0  0  0  0
  -24.0566    6.8089    7.0142 C   0  0  0  0  0  0  0  0  0  0  0  0
  -27.6944    6.9053    8.0073 C   0  0  0  0  0  0  0  0  0  0  0  0
  -23.2068    7.5340    6.4317 O   0  0  0  0  0  0  0  0  0  0  0  0
  -33.1008    8.0061    7.7609 N   0  0  0  0  0  0  0  0  0  0  0  0
  -28.8779   10.7777    6.5293 C   0  0  0  0  0  0  0  0  0  0  0  0
  -32.4108    9.0551    7.0259 C   0  0  0  0  0  0  0  0  0  0  0  0
  -27.0148   12.4072    5.2335 C   0  0  0  0  0  0  0  0  0  0  0  0
  -27.1522    8.9897    6.8751 C   0  0  0  0  0  0  0  0  0  0  0  0
  2  4  4  0
  2 29  4  0
  3 15  1  0
  3 10  1  0
  3 20  1  0
  4 11  4  0
  7 14  1  0
  8  5  1  0
  9 16  2  0
 10 20  1  0
 10  8  1  0
 11 23  4  0
 12 19  4  0
 13 23  4  0
 14 21  1  0
 14  6  1  0
 15 27  1  0
 16 25  1  0
 16 14  1  0
 17 26  4  0
 17 29  1  0
 18 17  4  0
 19 26  4  0
 22  4  1  0
 22  1  1  0
 24 22  2  0
 27 25  1  0
 27  8  1  0
 28 12  4  0
 28 18  4  0
 29 13  4  0
M  END
$$$$

     RDKit          3D

 27 32  0  0  0  0  0  0  0  0999 V2000
  -26.0558    8.9523    5.0770 C   0  0  0  0  0  0  0  0  0  0  0  0
  -27.5249   11.7400    4.4915 C   0  0  0  0  0  0  0  0  0  0  0  0
  -34.5177    6.0778    7.6712 C   0  0  0  0  0  0  0  0  0  0  0  0
  -33.1426    8.0864    7.5811 N   0  0  0  0  0  0  0  0  0  0  0  0
  -32.2027    9.9879    8.8081 C   0  0  0  0  0  0  0  0  0  0  0  0
  -26.1785    7.6190    4.9600 C   0  0  0  0  0  0  0  0  0  0  0  0
  -25.6107   10.3516    4.5722 N   0  0  0  0  0  0  0  0  0  0  0  0
  -27.0205    9.5658    6.8855 C   0  0  0  0  0  0  0  0  0  0  0  0
  -26.9174    8.5066    7.8846 C   0  0  0  0  0  0  0  0  0  0  0  0
  -27.1222   10.3649    5.0303 C   0  0  0  0  0  0  0  0  0  0  0  0
  -31.7988    7.5424    9.2865 O   0  0  0  0  0  0  0  0  0  0  0  0
  -27.9483   10.3299    6.3392 C   0  0  0  0  0  0  0  0  0  0  0  0
  -33.4360   10.6345    8.8909 O   0  0  0  0  0  0  0  0  0  0  0  0
  -32.7860    5.4357    9.8614 C   0  0  0  0  0  0  0  0  0  0  0  0
  -29.6827   11.7968    5.7209 C   0  0  0  0  0  0  0  0  0  0  0  0
  -32.4629    6.1459    6.2929 C   0  0  0  0  0  0  0  0  0  0  0  0
  -32.4055    8.5318    8.5405 C   0  0  0  0  0  0  0  0  0  0  0  0
  -26.0928   10.0677    5.8510 C   0  0  0  0  0  0  0  0  0  0  0  0
  -30.1529   10.2425    7.5483 N   0  0  0  0  0  0  0  0  0  0  0  0
  -33.6736    5.8788   10.5735 O   0  0  0  0  0  0  0  0  0  0  0  0
  -32.1748    6.2760    8.7737 C   0  0  0  0  0  0  0  0  0  0  0  0
  -28.7049   12.3537    4.7450 C   0  0  0  0  0  0  0  0  0  0  0  0
  -29.3106   10.7969    6.5320 C   0  0  0  0  0  0  0  0  0  0  0  0
  -33.1004    6.6302    7.5806 C   0  0  0  0  0  0  0  0  0  0  0  0
  -31.3803   10.6130    7.7327 C   0  0  0  0  0  0  0  0  0  0  0  0
  -26.8280    6.7699    6.0328 C   0  0  0  0  0  0  0  0  0  0  0  0
  -26.7375    7.2432    7.4767 C   0  0  0  0  0  0  0  0  0  0  0  0
  1  6  2  0
  2 22  2  0
  4 17  2  0
  5 17  1  0
  5 13  1  0
  6 26  1  0
  7  1  1  0
  7 18  1  0
  8  9  1  0
  9 27  2  0
 10  2  1  0
 10  7  1  0
 10 12  1  0
 10 18  1  0
 11 21  1  0
 11 17  1  0
 12 23  1  0
 12  8  2  0
 14 20  2  0
 15 23  2  0
 16 24  1  0
 18  1  1  0
 18  8  1  0
 19 25  2  3
 21 24  1  0
 21 14  1  0
 22 15  1  0
 23 19  1  0
 24  4  1  0
 24  3  1  0
 25  5  1  0
 26 27  1  0
M  END
$$$$

     RDKit          3D

 37 40  0  0  0  0  0  0  0  0999 V2000
  -32.8075    5.5661    6.2595 C   0  0  0  0  0  0  0  0  0  0  0  0
  -27.1200    5.6360   10.0580 F   0  0  0  0  0  0  0  0  0  0  0  0
  -25.5674   10.9854    5.2515 O   0  0  0  0  0  0  0  0  0  0  0  0
  -27.3175    8.4783    9.1634 C   0  0  0  0  0  0  0  0  0  0  0  0
  -27.7363    9.5046    8.3123 C   0  0  0  0  0  0  0  0  0  0  0  0
  -31.5055   10.4698    6.8175 C   0  0  0  0  0  0  0  0  0  0  0  0
  -32.9535    5.8300    7.7664 C   0  0  0  0  0  0  0  0  0  0  0  0
  -31.8833    6.4363    8.5665 C   0  0  0  0  0  0  0  0  0  0  0  0
  -26.1028    7.4752    7.3205 C   0  0  0  0  0  0  0  0  0  0  0  0
  -29.2681   13.7018    3.4429 C   0  0  0  0  0  0  0  0  0  0  0  0
  -27.7667    8.5164   10.5849 C   0  0  0  0  0  0  0  0  0  0  0  0
  -32.2089    8.1062    7.2875 C   0  0  0  0  0  0  0  0  0  0  0  0
  -33.0389    7.2593    8.1450 N   0  0  0  0  0  0  0  0  0  0  0  0
  -33.1377    2.6835    8.3296 C   0  0  0  0  0  0  0  0  0  0  0  0
  -33.9940    5.0151    8.5272 C   0  0  0  0  0  0  0  0  0  0  0  0
  -27.3870   12.2924    4.3606 C   0  0  0  0  0  0  0  0  0  0  0  0
  -29.2398   14.9723    4.1471 N   0  0  0  0  0  0  0  0  0  0  0  0
  -33.3832    3.8239    9.2569 C   0  0  0  0  0  0  0  0  0  0  0  0
  -29.6431   11.9484    5.1667 C   0  0  0  0  0  0  0  0  0  0  0  0
  -26.0259    6.3135    9.5513 C   0  0  0  0  0  0  0  0  0  0  0  0
  -29.1982   10.9389    6.0313 C   0  0  0  0  0  0  0  0  0  0  0  0
  -26.4631   12.9828    3.5198 N   0  0  0  0  0  0  0  0  0  0  0  0
  -32.1998    9.5458    7.8056 C   0  0  0  0  0  0  0  0  0  0  0  0
  -28.7506   12.6207    4.3319 C   0  0  0  0  0  0  0  0  0  0  0  0
  -34.1995    2.0729    7.6745 O   0  0  0  0  0  0  0  0  0  0  0  0
  -26.5267    8.5043    6.4778 C   0  0  0  0  0  0  0  0  0  0  0  0
  -27.3487    9.5267    6.9664 C   0  0  0  0  0  0  0  0  0  0  0  0
  -30.6110    7.2923    7.5891 S   0  0  0  0  0  0  0  0  0  0  0  0
  -27.8282   10.6013    6.0655 C   0  0  0  0  0  0  0  0  0  0  0  0
  -33.5102    9.9915    7.9848 O   0  0  0  0  0  0  0  0  0  0  0  0
  -32.0117    4.4417    6.0405 O   0  0  0  0  0  0  0  0  0  0  0  0
  -25.2417    5.4175    8.8440 F   0  0  0  0  0  0  0  0  0  0  0  0
  -31.9656    2.2609    8.1535 O   0  0  0  0  0  0  0  0  0  0  0  0
  -25.2791    6.8197   10.5998 F   0  0  0  0  0  0  0  0  0  0  0  0
  -30.1021   10.2495    6.8476 O   0  0  0  0  0  0  0  0  0  0  0  0
  -26.9264   11.2865    5.2229 C   0  0  0  0  0  0  0  0  0  0  0  0
  -26.4933    7.4436    8.6677 C   0  0  0  0  0  0  0  0  0  0  0  0
  1 31  1  0
  2 20  1  0
  3 36  1  0
  4 11  1  0
  5  4  4  0
  6 23  1  0
  7  1  1  0
  7  8  1  0
  7 13  1  0
  7 15  1  0
  8 28  1  0
  8 13  1  0
  9 37  4  0
 10 24  1  0
 10 17  1  0
 12 13  1  0
 12 23  1  0
 14 25  1  0
 15 18  1  0
 16 24  4  0
 16 36  4  0
 18 14  1  0
 19 21  4  0
 20 32  1  0
 20 34  1  0
 21 35  1  0
 22 16  1  0
 23 30  1  0
 24 19  4  0
 26 27  4  0
 26  9  4  0
 27  5  4  0
 28 12  1  0
 29 21  4  0
 29 27  1  0
 33 14  2  0
 35  6  1  0
 36 29  4  0
 37  4  4  0
 37 20  1  0
M  END
$$$$

     RDKit          3D

 27 29  0  0  0  0  0  0  0  0999 V2000
  -35.3306    6.2449    8.1525 C   0  0  0  0  0  0  0  0  0  0  0  0
  -33.8573    5.8863    8.1613 C   0  0  0  0  0  0  0  0  0  0  0  0
  -30.9308   11.2878    6.9891 C   0  0  0  0  0  0  0  0  0  0  0  0
  -25.0835    8.4875    6.5862 N   0  0  0  0  0  0  0  0  0  0  0  0
  -33.0879    6.8160    7.2834 C   0  0  0  0  0  0  0  0  0  0  0  0
  -33.2733   11.2459    7.5986 O   0  0  0  0  0  0  0  0  0  0  0  0
  -32.4397    6.3488    6.3091 O   0  0  0  0  0  0  0  0  0  0  0  0
  -32.3586    9.1722    6.7189 C   0  0  0  0  0  0  0  0  0  0  0  0
  -33.0789    8.2218    7.5525 N   0  0  0  0  0  0  0  0  0  0  0  0
  -31.2070   11.9068    5.6251 C   0  0  0  0  0  0  0  0  0  0  0  0
  -32.1161   10.4667    7.5035 C   0  0  0  0  0  0  0  0  0  0  0  0
  -27.6210    5.8592    6.4925 C   0  0  0  0  0  0  0  0  0  0  0  0
  -24.9605    9.8101    6.6819 N   0  0  0  0  0  0  0  0  0  0  0  0
  -26.2977    7.8854    6.5910 C   0  0  0  0  0  0  0  0  0  0  0  0
  -29.7680   10.4667    6.9330 O   0  0  0  0  0  0  0  0  0  0  0  0
  -26.9359   12.8598    6.9986 C   0  0  0  0  0  0  0  0  0  0  0  0
  -28.4568   10.9605    6.9136 C   0  0  0  0  0  0  0  0  0  0  0  0
  -28.7141    8.0062    6.7007 C   0  0  0  0  0  0  0  0  0  0  0  0
  -27.3492   10.0753    6.8011 C   0  0  0  0  0  0  0  0  0  0  0  0
  -25.8457   12.0017    6.8868 C   0  0  0  0  0  0  0  0  0  0  0  0
  -26.3773    6.4934    6.4887 C   0  0  0  0  0  0  0  0  0  0  0  0
  -33.1210    9.4111    5.4224 C   0  0  0  0  0  0  0  0  0  0  0  0
  -27.4723    8.6658    6.6990 C   0  0  0  0  0  0  0  0  0  0  0  0
  -26.0414   10.6235    6.7889 C   0  0  0  0  0  0  0  0  0  0  0  0
  -28.2294   12.3431    7.0125 C   0  0  0  0  0  0  0  0  0  0  0  0
  -33.3234    5.9336    9.5797 C   0  0  0  0  0  0  0  0  0  0  0  0
  -28.7892    6.6152    6.5984 C   0  0  0  0  0  0  0  0  0  0  0  0
  2  1  1  0
  2 26  1  0
  3 10  1  0
  3 11  1  0
  4 14  4  0
  5  2  1  0
  5  7  2  0
  5  9  1  0
  8 22  1  0
  8  9  1  0
  8 11  1  0
 11  6  1  0
 12 27  4  0
 13 24  4  0
 13  4  4  0
 14 23  4  0
 14 21  4  0
 15  3  1  0
 16 25  4  0
 17 15  1  0
 18 27  4  0
 19 17  4  0
 19 23  4  0
 20 16  4  0
 20 24  4  0
 21 12  4  0
 23 18  4  0
 24 19  4  0
 25 17  4  0
M  END
$$$$

     RDKit          3D

 24 26  0  0  0  0  0  0  0  0999 V2000
  -33.4484    8.3073    7.8346 N   0  0  0  0  0  0  0  0  0  0  0  0
  -33.6249    7.2366    5.0388 C   0  0  0  0  0  0  0  0  0  0  0  0
  -33.6180   10.3618    5.7688 O   0  0  0  0  0  0  0  0  0  0  0  0
  -25.4734   10.1771    7.2243 N   0  0  0  0  0  0  0  0  0  0  0  0
  -26.1874    6.6572    6.7114 C   0  0  0  0  0  0  0  0  0  0  0  0
  -32.4248    9.8276    6.2405 C   0  0  0  0  0  0  0  0  0  0  0  0
  -27.6183   12.7480    5.8509 C   0  0  0  0  0  0  0  0  0  0  0  0
  -27.6970   10.2143    6.9860 C   0  0  0  0  0  0  0  0  0  0  0  0
  -34.5565    7.1664    9.7883 C   0  0  0  0  0  0  0  0  0  0  0  0
  -30.0908   10.0480    6.6048 O   0  0  0  0  0  0  0  0  0  0  0  0
  -27.6542    6.6751    6.9578 C   0  0  0  0  0  0  0  0  0  0  0  0
  -28.2805    7.8080    7.3002 C   0  0  0  0  0  0  0  0  0  0  0  0
  -26.4967   10.8794    6.8598 C   0  0  0  0  0  0  0  0  0  0  0  0
  -27.4549    9.0094    7.4738 C   0  0  0  0  0  0  0  0  0  0  0  0
  -32.4988    6.4305    8.8549 O   0  0  0  0  0  0  0  0  0  0  0  0
  -32.4013    8.4491    6.8297 C   0  0  0  0  0  0  0  0  0  0  0  0
  -25.4120    7.7126    7.0141 C   0  0  0  0  0  0  0  0  0  0  0  0
  -28.8423   12.0597    5.9518 C   0  0  0  0  0  0  0  0  0  0  0  0
  -28.8944   10.7660    6.5112 C   0  0  0  0  0  0  0  0  0  0  0  0
  -26.4275   12.1525    6.2965 C   0  0  0  0  0  0  0  0  0  0  0  0
  -33.4418    7.2645    8.8110 C   0  0  0  0  0  0  0  0  0  0  0  0
  -25.9853    8.9063    7.7343 C   0  0  0  0  0  0  0  0  0  0  0  0
  -32.5189    7.3914    5.7675 C   0  0  0  0  0  0  0  0  0  0  0  0
  -31.3111   10.5472    6.1489 C   0  0  0  0  0  0  0  0  0  0  0  0
  1 21  1  0
  1 16  1  0
  2 23  2  0
  4 22  1  0
  5 11  1  0
  6  3  1  0
  7 18  4  0
  8 19  4  0
  8 14  2  0
 10 24  1  0
 12 11  2  0
 13  4  2  0
 13  8  4  0
 14 12  1  0
 15 21  2  0
 16 23  1  0
 16  6  1  0
 17  5  2  0
 18 19  4  0
 19 10  1  0
 20  7  4  0
 20 13  4  0
 21  9  1  0
 22 14  1  0
 22 17  1  0
 24  6  2  3
M  END
$$$$

     RDKit          3D

 21 23  0  0  0  0  0  0  0  0999 V2000
  -28.5593   12.3803    5.8376 C   0  0  0  0  0  0  0  0  0  0  0  0
  -27.3241    8.5305    6.3778 C   0  0  0  0  0  0  0  0  0  0  0  0
  -31.4840   10.1898    8.6968 C   0  0  0  0  0  0  0  0  0  0  0  0
  -34.5149    7.4311    7.2661 C   0  0  0  0  0  0  0  0  0  0  0  0
  -26.8520    6.8769    8.0505 C   0  0  0  0  0  0  0  0  0  0  0  0
  -27.2447   11.9514    5.5956 C   0  0  0  0  0  0  0  0  0  0  0  0
  -32.3555    8.3045    7.3091 C   0  0  0  0  0  0  0  0  0  0  0  0
  -25.8841    8.6670    5.9953 C   0  0  0  0  0  0  0  0  0  0  0  0
  -25.7602   10.0918    5.6936 N   0  0  0  0  0  0  0  0  0  0  0  0
  -30.1609    9.1908    6.9520 O   0  0  0  0  0  0  0  0  0  0  0  0
  -31.4884    9.5527    7.3132 C   0  0  0  0  0  0  0  0  0  0  0  0
  -27.9042    9.7056    6.2012 C   0  0  0  0  0  0  0  0  0  0  0  0
  -29.2133   10.1135    6.4913 C   0  0  0  0  0  0  0  0  0  0  0  0
  -32.6809   10.8719    8.9165 O   0  0  0  0  0  0  0  0  0  0  0  0
  -27.7732    7.4534    7.2682 C   0  0  0  0  0  0  0  0  0  0  0  0
  -25.4431    7.3533    8.0507 C   0  0  0  0  0  0  0  0  0  0  0  0
  -33.7597    8.6698    7.2421 N   0  0  0  0  0  0  0  0  0  0  0  0
  -24.9990    8.2312    7.1350 C   0  0  0  0  0  0  0  0  0  0  0  0
  -26.9441   10.6041    5.7882 C   0  0  0  0  0  0  0  0  0  0  0  0
  -29.5359   11.4709    6.2862 C   0  0  0  0  0  0  0  0  0  0  0  0
  -35.9955    7.7416    7.2060 C   0  0  0  0  0  0  0  0  0  0  0  0
  1 20  4  0
  2 15  1  0
  4 17  1  0
  4 21  1  0
  6  1  4  0
  6 19  4  0
  7 17  1  0
  8  2  1  0
  8 18  1  0
  9  8  1  0
 10 11  1  0
 11  7  1  0
 11  3  1  0
 12  2  2  0
 13 12  4  0
 13 10  1  0
 14  3  1  0
 15  5  2  0
 16  5  1  0
 18 16  2  0
 19  9  2  0
 19 12  4  0
 20 13  4  0
M  END
$$$$

     RDKit          3D

 29 31  0  0  0  0  0  0  0  0999 V2000
  -28.6764    4.6637    9.6363 O   0  0  0  0  0  0  0  0  0  0  0  0
  -32.8664    9.7621    6.0671 C   0  0  0  0  0  0  0  0  0  0  0  0
  -26.9551   12.3860    6.7021 C   0  0  0  0  0  0  0  0  0  0  0  0
  -31.8617    5.6852    6.5226 N   0  0  0  0  0  0  0  0  0  0  0  0
  -27.8435    9.7601    6.6116 C   0  0  0  0  0  0  0  0  0  0  0  0
  -26.2225    6.4933    6.6869 C   0  0  0  0  0  0  0  0  0  0  0  0
  -26.0218   11.3447    6.5577 C   0  0  0  0  0  0  0  0  0  0  0  0
  -32.8519    6.6294    6.0346 C   0  0  0  0  0  0  0  0  0  0  0  0
  -31.1782   11.4155    6.9391 C   0  0  0  0  0  0  0  0  0  0  0  0
  -28.3333   12.1041    6.7960 C   0  0  0  0  0  0  0  0  0  0  0  0
  -28.6923    7.6158    7.6118 C   0  0  0  0  0  0  0  0  0  0  0  0
  -29.0667    5.7467    9.1275 C   0  0  0  0  0  0  0  0  0  0  0  0
  -27.0737    5.7587    7.4204 C   0  0  0  0  0  0  0  0  0  0  0  0
  -32.5003   10.7173    7.2074 C   0  0  0  0  0  0  0  0  0  0  0  0
  -25.7270    8.8543    6.4091 N   0  0  0  0  0  0  0  0  0  0  0  0
  -25.7959    4.2803    8.7521 O   0  0  0  0  0  0  0  0  0  0  0  0
  -28.0238    8.2960    6.4509 C   0  0  0  0  0  0  0  0  0  0  0  0
  -30.3159    6.3643    9.6651 C   0  0  0  0  0  0  0  0  0  0  0  0
  -33.5083   11.6593    7.4253 O   0  0  0  0  0  0  0  0  0  0  0  0
  -28.3028    6.3926    8.0287 C   0  0  0  0  0  0  0  0  0  0  0  0
  -26.5036   10.0381    6.5017 C   0  0  0  0  0  0  0  0  0  0  0  0
  -33.8603    8.7959    6.5119 N   0  0  0  0  0  0  0  0  0  0  0  0
  -33.1474    7.6716    7.1016 C   0  0  0  0  0  0  0  0  0  0  0  0
  -28.7934   10.7722    6.7488 C   0  0  0  0  0  0  0  0  0  0  0  0
  -26.5830    7.8790    6.3940 C   0  0  0  0  0  0  0  0  0  0  0  0
  -33.3737   10.4994    4.8376 C   0  0  0  0  0  0  0  0  0  0  0  0
  -30.1465   10.4432    6.8444 O   0  0  0  0  0  0  0  0  0  0  0  0
  -33.9963    7.0614    8.2002 C   0  0  0  0  0  0  0  0  0  0  0  0
  -26.7006    4.3388    7.6914 C   0  0  0  0  0  0  0  0  0  0  0  0
  2 26  1  0
  2 22  1  0
  2 14  1  0
  3 10  4  0
  4  8  1  0
  5 24  4  0
  5 17  1  0
  6 13  2  0
  7  3  4  0
  7 21  4  0
  8 23  1  0
  9 14  1  0
 10 24  4  0
 11 20  2  0
 12  1  2  0
 12 18  1  0
 13 29  1  0
 13 20  1  0
 14 19  1  0
 15 25  2  0
 17 11  1  0
 20 12  1  0
 21 15  1  0
 21  5  4  0
 23 22  1  0
 23 28  1  0
 24 27  1  0
 25 17  1  0
 25  6  1  0
 27  9  1  0
 29 16  1  0
M  END
$$$$

     RDKit          3D

 27 31  0  0  0  0  0  0  0  0999 V2000
  -30.2536    6.7121    5.7129 C   0  0  0  0  0  0  0  0  0  0  0  0
  -27.8122   10.2958    4.9579 C   0  0  0  0  0  0  0  0  0  0  0  0
  -31.5416    7.2318    5.1074 C   0  0  0  0  0  0  0  0  0  0  0  0
  -26.7540    6.2296    7.3240 C   0  0  0  0  0  0  0  0  0  0  0  0
  -27.4447    4.2914    8.6512 C   0  0  0  0  0  0  0  0  0  0  0  0
  -32.4698   10.8737    8.2480 C   0  0  0  0  0  0  0  0  0  0  0  0
  -27.8422    8.2965    7.9674 C   0  0  0  0  0  0  0  0  0  0  0  0
  -29.0191   11.7434    6.6616 C   0  0  0  0  0  0  0  0  0  0  0  0
  -33.4731   11.8200    8.4555 O   0  0  0  0  0  0  0  0  0  0  0  0
  -27.7923    3.1892    8.6015 N   0  0  0  0  0  0  0  0  0  0  0  0
  -28.1352    9.4071    7.3138 C   0  0  0  0  0  0  0  0  0  0  0  0
  -27.0986    7.4825    7.0412 C   0  0  0  0  0  0  0  0  0  0  0  0
  -29.0274   10.5563    7.6480 C   0  0  0  0  0  0  0  0  0  0  0  0
  -27.0051    5.6866    8.7176 C   0  0  0  0  0  0  0  0  0  0  0  0
  -31.1336   11.4764    8.6553 C   0  0  0  0  0  0  0  0  0  0  0  0
  -31.5698    6.9043    3.6309 C   0  0  0  0  0  0  0  0  0  0  0  0
  -27.5770    9.2734    5.9806 C   0  0  0  0  0  0  0  0  0  0  0  0
  -26.9747    8.1406    5.7834 N   0  0  0  0  0  0  0  0  0  0  0  0
  -33.5786    9.5752    6.5030 N   0  0  0  0  0  0  0  0  0  0  0  0
  -28.8013   11.0138    8.9583 O   0  0  0  0  0  0  0  0  0  0  0  0
  -30.0501   10.4090    8.7203 C   0  0  0  0  0  0  0  0  0  0  0  0
  -28.3427    7.7570    9.2301 C   0  0  0  0  0  0  0  0  0  0  0  0
  -31.6451    8.7341    5.2971 C   0  0  0  0  0  0  0  0  0  0  0  0
  -32.2184    9.0433    6.6627 C   0  0  0  0  0  0  0  0  0  0  0  0
  -28.4916   11.4105    5.2689 C   0  0  0  0  0  0  0  0  0  0  0  0
  -27.9726    6.5123    9.5618 C   0  0  0  0  0  0  0  0  0  0  0  0
  -32.4535   10.4772    6.7806 C   0  0  0  0  0  0  0  0  0  0  0  0
  2 25  2  0
  2 17  1  0
  3  1  1  0
  4 14  1  0
  5 10  3  0
  6  9  1  0
  7 22  1  0
 11  7  2  0
 12  7  1  0
 12  4  2  0
 13  8  1  0
 13 11  1  0
 13 20  1  0
 14 26  1  0
 14  5  1  0
 15  6  1  0
 16  3  1  0
 17 18  2  0
 17 11  1  0
 18 12  1  0
 21 13  1  0
 21 15  1  0
 21 20  1  0
 22 26  2  0
 23  3  1  0
 24 23  1  0
 24 19  1  0
 25  8  1  0
 27 24  1  0
 27 19  1  0
 27  6  1  0
M  END
$$$$

     RDKit          3D

 27 31  0  0  0  0  0  0  0  0999 V2000
  -27.6783   10.2128    2.6124 O   0  0  0  0  0  0  0  0  0  0  0  0
  -30.5065    5.5987   12.3891 C   0  0  0  0  0  0  0  0  0  0  0  0
  -30.8502   10.5626    5.7029 C   0  0  0  0  0  0  0  0  0  0  0  0
  -31.3475    8.3676    8.5050 C   0  0  0  0  0  0  0  0  0  0  0  0
  -29.3335   10.1879    7.6750 C   0  0  0  0  0  0  0  0  0  0  0  0
  -29.0660    7.0067   10.9187 C   0  0  0  0  0  0  0  0  0  0  0  0
  -28.2144    9.1875    3.1879 C   0  0  0  0  0  0  0  0  0  0  0  0
  -29.1278    7.8431    5.1528 C   0  0  0  0  0  0  0  0  0  0  0  0
  -31.1154   11.6660    3.0865 C   0  0  0  0  0  0  0  0  0  0  0  0
  -30.1518   10.7249    3.4140 C   0  0  0  0  0  0  0  0  0  0  0  0
  -29.2318    6.4146   12.3126 C   0  0  0  0  0  0  0  0  0  0  0  0
  -28.8935    6.8529    2.9082 C   0  0  0  0  0  0  0  0  0  0  0  0
  -29.9896    8.3084    9.2060 C   0  0  0  0  0  0  0  0  0  0  0  0
  -31.1647    8.6895    7.1484 O   0  0  0  0  0  0  0  0  0  0  0  0
  -28.1492    5.5796   12.5769 O   0  0  0  0  0  0  0  0  0  0  0  0
  -29.9949   10.1621    4.6573 C   0  0  0  0  0  0  0  0  0  0  0  0
  -29.2104    6.7813    4.3466 C   0  0  0  0  0  0  0  0  0  0  0  0
  -28.7529    9.2229    4.6737 C   0  0  0  0  0  0  0  0  0  0  0  0
  -31.9980   12.0387    4.1123 C   0  0  0  0  0  0  0  0  0  0  0  0
  -29.3054    9.6821    9.1180 C   0  0  0  0  0  0  0  0  0  0  0  0
  -30.1665    7.9045   10.5915 N   0  0  0  0  0  0  0  0  0  0  0  0
  -29.0767   10.2426    2.7018 N   0  0  0  0  0  0  0  0  0  0  0  0
  -29.9395   10.6080    9.9501 O   0  0  0  0  0  0  0  0  0  0  0  0
  -29.2721    7.5158   13.3551 C   0  0  0  0  0  0  0  0  0  0  0  0
  -28.4346    7.9698    2.3486 C   0  0  0  0  0  0  0  0  0  0  0  0
  -30.7487   10.0338    7.1000 C   0  0  0  0  0  0  0  0  0  0  0  0
  -31.8642   11.4946    5.4067 C   0  0  0  0  0  0  0  0  0  0  0  0
  1  7  1  0
  4 13  1  0
  5 20  1  0
  6 11  1  0
  6 21  1  0
  7 25  1  0
  7 18  1  0
  8 17  2  0
  9 19  4  0
  9 10  4  0
 10 22  1  0
 10 16  4  0
 11 24  1  0
 11  2  1  0
 12 17  1  0
 13 21  1  0
 13 20  1  0
 14  4  1  0
 14 26  1  0
 15 11  1  0
 16  3  4  0
 16 18  1  0
 18  8  1  0
 19 27  4  0
 20 23  1  0
 22  1  1  0
 22  7  1  0
 25 12  2  0
 26  3  1  0
 26  5  1  0
 27  3  4  0
M  END
$$$$

     RDKit          3D

 24 26  0  0  0  0  0  0  0  0999 V2000
  -25.4915    9.8620    6.3266 N   0  0  0  0  0  0  0  0  0  0  0  0
  -34.0434    7.1868    7.5339 C   0  0  0  0  0  0  0  0  0  0  0  0
  -26.5676    6.4536    6.9445 C   0  0  0  0  0  0  0  0  0  0  0  0
  -33.6364    5.7555    7.2432 C   0  0  0  0  0  0  0  0  0  0  0  0
  -30.3198   10.1941    6.6345 O   0  0  0  0  0  0  0  0  0  0  0  0
  -28.2861    7.9904    7.8054 C   0  0  0  0  0  0  0  0  0  0  0  0
  -26.5709   11.6929    5.2444 C   0  0  0  0  0  0  0  0  0  0  0  0
  -27.8085   12.3237    5.0303 C   0  0  0  0  0  0  0  0  0  0  0  0
  -25.6642    7.4275    6.7385 C   0  0  0  0  0  0  0  0  0  0  0  0
  -32.4319   10.0799    7.8259 C   0  0  0  0  0  0  0  0  0  0  0  0
  -29.7168    9.2698    7.5066 C   0  0  0  0  0  0  0  0  0  0  0  0
  -33.5408   10.4560    7.0684 O   0  0  0  0  0  0  0  0  0  0  0  0
  -28.9749   11.8418    5.6581 C   0  0  0  0  0  0  0  0  0  0  0  0
  -27.3640    9.0690    7.4339 C   0  0  0  0  0  0  0  0  0  0  0  0
  -31.2212   10.9333    7.4203 C   0  0  0  0  0  0  0  0  0  0  0  0
  -28.9145   10.7318    6.5171 C   0  0  0  0  0  0  0  0  0  0  0  0
  -32.1614    8.5816    7.6327 C   0  0  0  0  0  0  0  0  0  0  0  0
  -33.0825    7.7962    8.4391 N   0  0  0  0  0  0  0  0  0  0  0  0
  -30.7180    8.2041    7.9797 C   0  0  0  0  0  0  0  0  0  0  0  0
  -35.4148    7.1956    8.1757 C   0  0  0  0  0  0  0  0  0  0  0  0
  -25.8973    8.8191    7.2693 C   0  0  0  0  0  0  0  0  0  0  0  0
  -27.8792    6.7331    7.5885 C   0  0  0  0  0  0  0  0  0  0  0  0
  -26.5308   10.6013    6.1109 C   0  0  0  0  0  0  0  0  0  0  0  0
  -27.6655   10.1530    6.7474 C   0  0  0  0  0  0  0  0  0  0  0  0
  1 21  1  0
  2 18  1  0
  2 20  1  0
  2  4  1  0
  3 22  1  0
  5 11  1  0
  6 22  2  0
  7  8  4  0
  7 23  4  0
  8 13  4  0
  9  3  2  0
 10 12  1  0
 13 16  4  0
 14  6  1  0
 15  5  1  0
 15 10  1  0
 17 18  1  0
 17 10  1  0
 19 17  1  0
 19 11  1  0
 21 14  1  0
 21  9  1  0
 23  1  2  0
 23 24  4  0
 24 16  4  0
 24 14  2  0
M  END
$$$$

     RDKit          3D

 21 23  0  0  0  0  0  0  0  0999 V2000
  -27.6308   12.5439    5.6034 C   0  0  0  0  0  0  0  0  0  0  0  0
  -32.2719   10.1386    8.1263 C   0  0  0  0  0  0  0  0  0  0  0  0
  -34.1763    7.2598    6.8143 C   0  0  0  0  0  0  0  0  0  0  0  0
  -35.0869    6.2404    7.4654 C   0  0  0  0  0  0  0  0  0  0  0  0
  -30.0596   10.1834    7.1822 O   0  0  0  0  0  0  0  0  0  0  0  0
  -25.6961    9.4871    5.6930 N   0  0  0  0  0  0  0  0  0  0  0  0
  -28.8084   12.0506    6.1967 C   0  0  0  0  0  0  0  0  0  0  0  0
  -26.2356    8.2211    6.1859 C   0  0  0  0  0  0  0  0  0  0  0  0
  -27.6172    8.5940    6.6221 C   0  0  0  0  0  0  0  0  0  0  0  0
  -32.8302    9.1339    7.1334 C   0  0  0  0  0  0  0  0  0  0  0  0
  -27.5707    7.0842    8.4857 C   0  0  0  0  0  0  0  0  0  0  0  0
  -26.5336   11.6954    5.3860 C   0  0  0  0  0  0  0  0  0  0  0  0
  -33.6953    8.1900    7.8188 N   0  0  0  0  0  0  0  0  0  0  0  0
  -31.2014   10.9830    7.4617 C   0  0  0  0  0  0  0  0  0  0  0  0
  -28.9096   10.6954    6.5731 C   0  0  0  0  0  0  0  0  0  0  0  0
  -26.0867    7.0869    8.3850 C   0  0  0  0  0  0  0  0  0  0  0  0
  -25.4548    7.6652    7.3492 C   0  0  0  0  0  0  0  0  0  0  0  0
  -28.3179    7.8268    7.6590 C   0  0  0  0  0  0  0  0  0  0  0  0
  -26.6532   10.3553    5.7502 C   0  0  0  0  0  0  0  0  0  0  0  0
  -33.2967   10.9694    8.5796 O   0  0  0  0  0  0  0  0  0  0  0  0
  -27.8142    9.8628    6.3061 C   0  0  0  0  0  0  0  0  0  0  0  0
  1  7  4  0
  2 20  1  0
  3 13  1  0
  3  4  1  0
  5 14  1  0
  6  8  1  0
  7 15  4  0
  8 17  1  0
  8  9  1  0
  9 18  1  0
 10 13  1  0
 10  2  1  0
 12  1  4  0
 12 19  4  0
 14  2  1  0
 15  5  1  0
 16 11  1  0
 17 16  2  0
 18 11  2  0
 19  6  2  0
 19 21  4  0
 21 15  4  0
 21  9  2  0
M  END
$$$$

     RDKit          3D

 29 33  0  0  0  0  0  0  0  0999 V2000
  -27.4175    8.2383    7.2341 C   0  0  0  0  0  0  0  0  0  0  0  0
  -25.3487    7.2860    6.3296 C   0  0  0  0  0  0  0  0  0  0  0  0
  -28.1616   10.2774    5.9303 C   0  0  0  0  0  0  0  0  0  0  0  0
  -32.4938   10.1608   10.1304 O   0  0  0  0  0  0  0  0  0  0  0  0
  -32.9926    8.2263    7.9979 N   0  0  0  0  0  0  0  0  0  0  0  0
  -26.4628   10.2586    4.4589 N   0  0  0  0  0  0  0  0  0  0  0  0
  -32.2921    5.9922    8.3883 C   0  0  0  0  0  0  0  0  0  0  0  0
  -32.9550    5.2535    9.3798 O   0  0  0  0  0  0  0  0  0  0  0  0
  -29.9286   11.8974    5.9399 C   0  0  0  0  0  0  0  0  0  0  0  0
  -29.3409   12.5304    4.8230 C   0  0  0  0  0  0  0  0  0  0  0  0
  -35.0125    5.0909    7.3899 C   0  0  0  0  0  0  0  0  0  0  0  0
  -27.5883   10.8986    4.8355 C   0  0  0  0  0  0  0  0  0  0  0  0
  -33.2555    6.8848    7.5664 C   0  0  0  0  0  0  0  0  0  0  0  0
  -31.9766    8.2940    8.7694 C   0  0  0  0  0  0  0  0  0  0  0  0
  -34.7454    6.5618    7.7036 C   0  0  0  0  0  0  0  0  0  0  0  0
  -30.0945    6.9141    8.4471 O   0  0  0  0  0  0  0  0  0  0  0  0
  -29.3389   10.7496    6.5128 C   0  0  0  0  0  0  0  0  0  0  0  0
  -31.4899    9.5865    9.3508 C   0  0  0  0  0  0  0  0  0  0  0  0
  -26.4005    7.2672    7.2726 C   0  0  0  0  0  0  0  0  0  0  0  0
  -25.6317   10.5935    3.4148 O   0  0  0  0  0  0  0  0  0  0  0  0
  -28.1547   12.0318    4.2555 C   0  0  0  0  0  0  0  0  0  0  0  0
  -27.3423    9.2064    6.2359 C   0  0  0  0  0  0  0  0  0  0  0  0
  -31.3451    6.9799    9.0607 C   0  0  0  0  0  0  0  0  0  0  0  0
  -33.4826    4.1325    8.7255 C   0  0  0  0  0  0  0  0  0  0  0  0
  -29.8974   10.0967    7.6151 O   0  0  0  0  0  0  0  0  0  0  0  0
  -34.8613    4.3091    8.5453 O   0  0  0  0  0  0  0  0  0  0  0  0
  -25.2949    8.2765    5.3318 C   0  0  0  0  0  0  0  0  0  0  0  0
  -31.0809   10.5560    8.2547 C   0  0  0  0  0  0  0  0  0  0  0  0
  -26.3136    9.2271    5.3136 C   0  0  0  0  0  0  0  0  0  0  0  0
  1 19  4  0
  2 19  4  0
  3 17  4  0
  3 22  4  0
  6 29  4  0
  7 13  1  0
  7  8  1  0
  8 24  1  0
  9 17  4  0
 10  9  4  0
 11 26  1  0
 12  6  4  0
 12  3  4  0
 13  5  1  0
 13 15  1  0
 14  5  2  0
 14 18  1  0
 15 11  1  0
 17 25  1  0
 18  4  1  0
 20  6  1  0
 21 10  4  0
 21 12  4  0
 22  1  4  0
 23 16  1  0
 23  7  1  0
 23 14  1  0
 24 26  1  0
 27  2  4  0
 28 25  1  0
 28 18  1  0
 29 22  4  0
 29 27  4  0
M  END
$$$$

     RDKit          3D

 27 29  0  0  0  0  0  0  0  0999 V2000
  -35.1942    6.4422    7.9588 C   0  0  0  0  0  0  0  0  0  0  0  0
  -28.6281   10.9687    6.9389 C   0  0  0  0  0  0  0  0  0  0  0  0
  -33.5348    8.1781    7.8645 N   0  0  0  0  0  0  0  0  0  0  0  0
  -28.0336    6.8073    8.0809 C   0  0  0  0  0  0  0  0  0  0  0  0
  -27.4794   10.2056    6.5930 C   0  0  0  0  0  0  0  0  0  0  0  0
  -25.3426   10.1517    5.4727 N   0  0  0  0  0  0  0  0  0  0  0  0
  -26.8704    6.1510    7.6789 C   0  0  0  0  0  0  0  0  0  0  0  0
  -34.0111    6.9845    7.2150 C   0  0  0  0  0  0  0  0  0  0  0  0
  -32.9792    5.8810    7.3219 C   0  0  0  0  0  0  0  0  0  0  0  0
  -24.0813    8.2790    5.4523 O   0  0  0  0  0  0  0  0  0  0  0  0
  -32.1977   10.1792    7.9646 C   0  0  0  0  0  0  0  0  0  0  0  0
  -26.5895   12.1673    5.4344 C   0  0  0  0  0  0  0  0  0  0  0  0
  -25.9103    6.8307    6.9294 C   0  0  0  0  0  0  0  0  0  0  0  0
  -29.0693    6.0769    8.8599 C   0  0  0  0  0  0  0  0  0  0  0  0
  -26.1065    8.1730    6.5697 C   0  0  0  0  0  0  0  0  0  0  0  0
  -25.1413    8.8559    5.8169 C   0  0  0  0  0  0  0  0  0  0  0  0
  -29.6734   10.4333    7.6827 O   0  0  0  0  0  0  0  0  0  0  0  0
  -34.7311    5.0891    8.4447 C   0  0  0  0  0  0  0  0  0  0  0  0
  -28.7340   12.3011    6.5306 C   0  0  0  0  0  0  0  0  0  0  0  0
  -33.6358    4.6908    7.6657 O   0  0  0  0  0  0  0  0  0  0  0  0
  -27.2901    8.8481    6.9662 C   0  0  0  0  0  0  0  0  0  0  0  0
  -26.4597   10.8344    5.8302 C   0  0  0  0  0  0  0  0  0  0  0  0
  -33.2497   11.0820    8.1197 O   0  0  0  0  0  0  0  0  0  0  0  0
  -32.6855    8.9451    7.2842 C   0  0  0  0  0  0  0  0  0  0  0  0
  -29.9845    5.4858    7.9888 O   0  0  0  0  0  0  0  0  0  0  0  0
  -28.2420    8.1405    7.7207 C   0  0  0  0  0  0  0  0  0  0  0  0
  -27.7220   12.8990    5.7827 C   0  0  0  0  0  0  0  0  0  0  0  0
  1 18  1  0
  2 17  1  0
  4 14  1  0
  5  2  4  0
  5 21  4  0
  6 22  4  0
  6 16  4  0
  7  4  4  0
  8  9  1  0
  8  3  1  0
  8  1  1  0
  9 20  1  0
 10 16  2  0
 11 23  1  0
 12 27  4  0
 12 22  4  0
 13  7  4  0
 15 13  4  0
 15 21  4  0
 16 15  4  0
 19  2  4  0
 20 18  1  0
 21 26  4  0
 22  5  4  0
 24  3  2  3
 24 11  1  0
 25 14  1  0
 26  4  4  0
 27 19  4  0
M  END
$$$$

     RDKit          3D

 37 40  0  0  0  0  0  0  0  0999 V2000
  -33.7499    8.0236    7.1004 N   0  0  0  0  0  0  0  0  0  0  0  0
  -28.4449    7.9967    8.4556 C   0  0  0  0  0  0  0  0  0  0  0  0
  -36.7628    4.3342   10.2400 C   0  0  0  0  0  0  0  0  0  0  0  0
  -33.6577    3.6567    7.7915 C   0  0  0  0  0  0  0  0  0  0  0  0
  -30.8984    5.8581    7.4565 N   0  0  0  0  0  0  0  0  0  0  0  0
  -25.6176    7.6487    8.4756 C   0  0  0  0  0  0  0  0  0  0  0  0
  -26.4690    6.7057    9.0877 C   0  0  0  0  0  0  0  0  0  0  0  0
  -23.7633    6.3194    9.1577 F   0  0  0  0  0  0  0  0  0  0  0  0
  -34.2390    4.7365    7.1583 C   0  0  0  0  0  0  0  0  0  0  0  0
  -26.5004   10.6153    6.7710 C   0  0  0  0  0  0  0  0  0  0  0  0
  -24.4418   12.1664    4.5455 O   0  0  0  0  0  0  0  0  0  0  0  0
  -27.8240   10.1432    7.1399 C   0  0  0  0  0  0  0  0  0  0  0  0
  -24.1252    7.4693    8.4765 C   0  0  0  0  0  0  0  0  0  0  0  0
  -26.1392   10.8132    3.7193 N   0  0  0  0  0  0  0  0  0  0  0  0
  -33.3235    5.6751    6.9708 C   0  0  0  0  0  0  0  0  0  0  0  0
  -32.5755   10.1312    7.4337 C   0  0  0  0  0  0  0  0  0  0  0  0
  -23.6703    7.3754    7.1742 F   0  0  0  0  0  0  0  0  0  0  0  0
  -28.9425   10.8030    6.8483 C   0  0  0  0  0  0  0  0  0  0  0  0
  -23.5283    8.5547    9.0886 F   0  0  0  0  0  0  0  0  0  0  0  0
  -30.1822   10.2902    7.2351 O   0  0  0  0  0  0  0  0  0  0  0  0
  -33.8093    6.8557    6.2383 C   0  0  0  0  0  0  0  0  0  0  0  0
  -35.5531    5.0707    6.5878 C   0  0  0  0  0  0  0  0  0  0  0  0
  -28.8192   12.0866    6.1089 C   0  0  0  0  0  0  0  0  0  0  0  0
  -26.2161    8.7534    7.8603 C   0  0  0  0  0  0  0  0  0  0  0  0
  -25.5534    9.8277    7.1838 N   0  0  0  0  0  0  0  0  0  0  0  0
  -26.3016   11.8956    6.0083 C   0  0  0  0  0  0  0  0  0  0  0  0
  -25.5719   11.6459    4.7276 C   0  0  0  0  0  0  0  0  0  0  0  0
  -32.3457    3.9553    7.9992 N   0  0  0  0  0  0  0  0  0  0  0  0
  -35.2896    6.4732    5.9862 C   0  0  0  0  0  0  0  0  0  0  0  0
  -32.7170    8.8937    6.5648 C   0  0  0  0  0  0  0  0  0  0  0  0
  -33.7389   10.8952    7.3534 O   0  0  0  0  0  0  0  0  0  0  0  0
  -31.4012   10.9625    6.9528 C   0  0  0  0  0  0  0  0  0  0  0  0
  -32.1549    5.1943    7.4889 C   0  0  0  0  0  0  0  0  0  0  0  0
  -36.7562    4.5158    9.0340 O   0  0  0  0  0  0  0  0  0  0  0  0
  -27.8682    6.8793    9.0778 C   0  0  0  0  0  0  0  0  0  0  0  0
  -27.5850    8.9103    7.8551 C   0  0  0  0  0  0  0  0  0  0  0  0
  -27.6265   12.5851    5.7298 C   0  0  0  0  0  0  0  0  0  0  0  0
  2 35  4  0
  4 28  4  0
  5 33  1  0
  6  7  4  0
  7 35  4  0
  8 13  1  0
  9  4  4  0
 10 25  2  0
 10 12  1  0
 12 18  2  0
 12 36  1  0
 13  6  1  0
 13 19  1  0
 14 27  1  0
 15  9  4  0
 15 33  4  0
 16 31  1  0
 17 13  1  0
 18 20  1  0
 20 32  1  0
 21  1  1  0
 21 15  1  0
 22  9  1  0
 23 18  1  0
 24 36  4  0
 24  6  4  0
 25 24  1  0
 26 27  1  0
 26 37  1  0
 26 10  1  0
 27 11  2  0
 29 21  1  0
 29 22  1  0
 30  1  1  0
 30 16  1  0
 32 16  1  0
 33 28  4  0
 34  3  2  0
 36  2  4  0
 37 23  2  0
M  END
$$$$

     RDKit          3D

 27 30  0  0  0  0  0  0  0  0999 V2000
  -26.9303    6.6098    6.4828 C   0  0  0  0  0  0  0  0  0  0  0  0
  -28.8632   13.0775    5.4293 C   0  0  0  0  0  0  0  0  0  0  0  0
  -29.6112   11.0403    7.7052 C   0  0  0  0  0  0  0  0  0  0  0  0
  -33.6250    5.3386    7.2779 C   0  0  0  0  0  0  0  0  0  0  0  0
  -27.0561    8.9699    6.0471 C   0  0  0  0  0  0  0  0  0  0  0  0
  -29.6823   10.5247    9.0071 O   0  0  0  0  0  0  0  0  0  0  0  0
  -31.0492   10.4168    9.3016 C   0  0  0  0  0  0  0  0  0  0  0  0
  -28.0900    9.0954    6.9386 C   0  0  0  0  0  0  0  0  0  0  0  0
  -31.8364    8.5449    7.8697 C   0  0  0  0  0  0  0  0  0  0  0  0
  -27.5791   11.0276    6.0302 C   0  0  0  0  0  0  0  0  0  0  0  0
  -31.4839    8.9621    9.2879 C   0  0  0  0  0  0  0  0  0  0  0  0
  -28.5999    7.9973    7.6291 C   0  0  0  0  0  0  0  0  0  0  0  0
  -31.9682    7.0998    7.7990 N   0  0  0  0  0  0  0  0  0  0  0  0
  -28.0076    6.7447    7.3914 C   0  0  0  0  0  0  0  0  0  0  0  0
  -26.7980    4.1736    6.9396 O   0  0  0  0  0  0  0  0  0  0  0  0
  -28.4406   10.4302    6.9642 C   0  0  0  0  0  0  0  0  0  0  0  0
  -25.3488    5.1586    5.4670 O   0  0  0  0  0  0  0  0  0  0  0  0
  -29.5607   12.5677    7.7533 C   0  0  0  0  0  0  0  0  0  0  0  0
  -33.2681    6.8248    7.1991 C   0  0  0  0  0  0  0  0  0  0  0  0
  -32.6055    8.8096   10.1050 O   0  0  0  0  0  0  0  0  0  0  0  0
  -27.5075   12.4804    5.6694 C   0  0  0  0  0  0  0  0  0  0  0  0
  -29.7957   13.1368    6.3870 C   0  0  0  0  0  0  0  0  0  0  0  0
  -26.4460    7.7433    5.7953 C   0  0  0  0  0  0  0  0  0  0  0  0
  -33.0981    5.9301    5.9857 C   0  0  0  0  0  0  0  0  0  0  0  0
  -26.7611   10.1294    5.5124 O   0  0  0  0  0  0  0  0  0  0  0  0
  -26.3161    5.2900    6.2643 C   0  0  0  0  0  0  0  0  0  0  0  0
  -32.6163    4.5859    7.8877 O   0  0  0  0  0  0  0  0  0  0  0  0
  1 14  4  0
  1 26  1  0
  2 21  1  0
  2 22  2  0
  3  6  1  0
  4 27  1  0
  4 19  1  0
  4 24  1  0
  5  8  4  0
  5 23  4  0
  7  6  1  0
  7 11  1  0
  8 12  4  0
  9 13  1  0
  9 11  1  0
 10 25  4  0
 10 16  4  0
 11 20  1  0
 12 14  4  0
 16  3  1  0
 16  8  4  0
 17 26  2  0
 18  3  1  0
 19 13  1  0
 19 24  1  0
 21 10  1  0
 22 18  1  0
 23  1  4  0
 25  5  4  0
 26 15  1  0
M  END
$$$$

     RDKit          3D

 24 27  0  0  0  0  0  0  0  0999 V2000
  -26.9838   10.5935    5.6421 C   0  0  0  0  0  0  0  0  0  0  0  0
  -31.8800    8.9115    7.8829 C   0  0  0  0  0  0  0  0  0  0  0  0
  -35.4694    7.0736    6.3094 C   0  0  0  0  0  0  0  0  0  0  0  0
  -26.6411    6.8090    8.1110 C   0  0  0  0  0  0  0  0  0  0  0  0
  -25.1091    7.7283    6.4383 C   0  0  0  0  0  0  0  0  0  0  0  0
  -29.3317   11.8743    6.3864 C   0  0  0  0  0  0  0  0  0  0  0  0
  -24.7573   10.1430    4.5638 C   0  0  0  0  0  0  0  0  0  0  0  0
  -27.1956    8.8423    6.9701 C   0  0  0  0  0  0  0  0  0  0  0  0
  -27.5349    7.8762    7.9159 C   0  0  0  0  0  0  0  0  0  0  0  0
  -26.0130    8.7760    6.2575 C   0  0  0  0  0  0  0  0  0  0  0  0
  -30.7776   10.8138    8.6243 O   0  0  0  0  0  0  0  0  0  0  0  0
  -32.0704   10.2891    8.4013 C   0  0  0  0  0  0  0  0  0  0  0  0
  -29.0330   10.6213    6.9569 C   0  0  0  0  0  0  0  0  0  0  0  0
  -32.8245    7.9938    7.7041 C   0  0  0  0  0  0  0  0  0  0  0  0
  -34.1916    8.2751    7.9978 N   0  0  0  0  0  0  0  0  0  0  0  0
  -29.9408   10.0217    7.8908 N   0  0  0  0  0  0  0  0  0  0  0  0
  -27.2758   11.8289    5.0641 C   0  0  0  0  0  0  0  0  0  0  0  0
  -35.2198    7.2697    7.7927 C   0  0  0  0  0  0  0  0  0  0  0  0
  -27.8310   10.0060    6.5685 C   0  0  0  0  0  0  0  0  0  0  0  0
  -30.4631    8.6969    7.6284 C   0  0  0  0  0  0  0  0  0  0  0  0
  -25.4386    6.7344    7.3765 C   0  0  0  0  0  0  0  0  0  0  0  0
  -28.4645   12.4697    5.4486 C   0  0  0  0  0  0  0  0  0  0  0  0
  -32.7372   11.0690    7.4546 O   0  0  0  0  0  0  0  0  0  0  0  0
  -25.8791    9.8421    5.4408 N   0  0  0  0  0  0  0  0  0  0  0  0
  1 24  4  0
  1 19  4  0
  2 14  2  3
  2 12  1  0
  3 18  1  0
  5 21  4  0
  6 13  4  0
  8  9  4  0
  9  4  4  0
 10  8  4  0
 10  5  4  0
 11 12  1  0
 12 23  1  0
 13 16  1  0
 14 15  1  0
 15 18  1  0
 16 11  1  0
 17 22  4  0
 17  1  4  0
 19 13  4  0
 19  8  4  0
 20  2  1  0
 20 16  1  0
 21  4  4  0
 22  6  4  0
 24  7  1  0
 24 10  4  0
M  END
$$$$

     RDKit          3D

 21 23  0  0  0  0  0  0  0  0999 V2000
  -28.4397   12.6247    6.3576 C   0  0  0  0  0  0  0  0  0  0  0  0
  -29.2390    6.7139    5.7126 C   0  0  0  0  0  0  0  0  0  0  0  0
  -27.9539    6.1352    5.6663 C   0  0  0  0  0  0  0  0  0  0  0  0
  -26.9690    8.3099    5.9307 C   0  0  0  0  0  0  0  0  0  0  0  0
  -26.8027    6.9347    5.7753 C   0  0  0  0  0  0  0  0  0  0  0  0
  -32.8117    6.3699   10.6341 C   0  0  0  0  0  0  0  0  0  0  0  0
  -27.0990   12.7760    6.3781 C   0  0  0  0  0  0  0  0  0  0  0  0
  -29.1367   11.2765    6.2513 C   0  0  0  0  0  0  0  0  0  0  0  0
  -28.2398    8.8748    5.9773 C   0  0  0  0  0  0  0  0  0  0  0  0
  -33.4583   10.5017    7.5835 O   0  0  0  0  0  0  0  0  0  0  0  0
  -26.0017    9.1707    6.0419 N   0  0  0  0  0  0  0  0  0  0  0  0
  -26.6989   10.4063    6.1729 C   0  0  0  0  0  0  0  0  0  0  0  0
  -28.1195   10.1793    6.1321 C   0  0  0  0  0  0  0  0  0  0  0  0
  -32.4928    8.3805    9.3232 N   0  0  0  0  0  0  0  0  0  0  0  0
  -31.7871    8.9080    8.1692 C   0  0  0  0  0  0  0  0  0  0  0  0
  -32.1266   10.3763    7.9792 C   0  0  0  0  0  0  0  0  0  0  0  0
  -32.1094    6.9861    9.4428 C   0  0  0  0  0  0  0  0  0  0  0  0
  -31.2304   10.9804    6.9142 C   0  0  0  0  0  0  0  0  0  0  0  0
  -29.9195   11.0711    7.3895 O   0  0  0  0  0  0  0  0  0  0  0  0
  -29.3937    8.1012    5.8692 C   0  0  0  0  0  0  0  0  0  0  0  0
  -26.1737   11.6209    6.2859 C   0  0  0  0  0  0  0  0  0  0  0  0
  1  8  1  0
  3  2  4  0
  4  5  4  0
  4  9  4  0
  5  3  4  0
  7  1  2  0
  8 13  1  0
  8 19  1  0
  9 20  4  0
 11  4  2  0
 12 11  1  0
 12 13  1  0
 13  9  2  0
 15 14  1  0
 15 16  1  0
 16 10  1  0
 17 14  1  0
 17  6  1  0
 18 16  1  0
 19 18  1  0
 20  2  4  0
 21  7  1  0
 21 12  2  0
M  END
$$$$

     RDKit          3D

 29 32  0  0  0  0  0  0  0  0999 V2000
  -31.8695    9.2551    9.9479 C   0  0  0  0  0  0  0  0  0  0  0  0
  -32.9994    4.1407    6.9331 C   0  0  0  0  0  0  0  0  0  0  0  0
  -31.6121    4.3943    6.4906 C   0  0  0  0  0  0  0  0  0  0  0  0
  -28.6977   12.4082    5.3655 C   0  0  0  0  0  0  0  0  0  0  0  0
  -32.8073    7.9159    8.2728 C   0  0  0  0  0  0  0  0  0  0  0  0
  -28.2129    7.8654    8.0183 C   0  0  0  0  0  0  0  0  0  0  0  0
  -32.8955    9.2165    8.9151 N   0  0  0  0  0  0  0  0  0  0  0  0
  -31.9138    8.0076    7.0500 C   0  0  0  0  0  0  0  0  0  0  0  0
  -27.8669    8.6597    7.0115 C   0  0  0  0  0  0  0  0  0  0  0  0
  -28.2784    9.9954    6.6523 C   0  0  0  0  0  0  0  0  0  0  0  0
  -28.6198    4.7655    9.4131 O   0  0  0  0  0  0  0  0  0  0  0  0
  -32.4888   11.4375   10.7205 O   0  0  0  0  0  0  0  0  0  0  0  0
  -27.6241   10.2637    5.4687 C   0  0  0  0  0  0  0  0  0  0  0  0
  -27.6008    6.4791    8.1148 C   0  0  0  0  0  0  0  0  0  0  0  0
  -29.8183   10.5671    8.4249 O   0  0  0  0  0  0  0  0  0  0  0  0
  -27.8165   11.4698    4.7974 C   0  0  0  0  0  0  0  0  0  0  0  0
  -26.7180    6.0743    6.9352 C   0  0  0  0  0  0  0  0  0  0  0  0
  -29.3701   12.1252    6.5738 C   0  0  0  0  0  0  0  0  0  0  0  0
  -28.6575    5.4556    8.3602 C   0  0  0  0  0  0  0  0  0  0  0  0
  -29.7035    5.2604    7.4076 N   0  0  0  0  0  0  0  0  0  0  0  0
  -32.2303    3.1437    6.3089 O   0  0  0  0  0  0  0  0  0  0  0  0
  -29.1655   10.8968    7.2357 C   0  0  0  0  0  0  0  0  0  0  0  0
  -26.9712    8.2542    5.9498 C   0  0  0  0  0  0  0  0  0  0  0  0
  -30.7148    4.3174    7.6284 N   0  0  0  0  0  0  0  0  0  0  0  0
  -34.1902    7.4717    7.8459 C   0  0  0  0  0  0  0  0  0  0  0  0
  -26.8146    9.1642    5.0364 N   0  0  0  0  0  0  0  0  0  0  0  0
  -26.4084    6.9060    5.9285 C   0  0  0  0  0  0  0  0  0  0  0  0
  -30.8653   11.3570    8.9720 C   0  0  0  0  0  0  0  0  0  0  0  0
  -31.4229   10.6888   10.2212 C   0  0  0  0  0  0  0  0  0  0  0  0
  1 29  1  0
  3 24  1  0
  3  2  1  0
  4 18  4  0
  5 25  1  0
  6 14  1  0
  7  5  1  0
  7  1  1  0
  8  5  1  0
  9  6  2  0
 10 22  4  0
 10  9  1  0
 13 26  1  0
 13 10  4  0
 14 19  1  0
 16  4  4  0
 16 13  4  0
 17 14  1  0
 18 22  4  0
 19 20  1  0
 19 11  2  0
 20 24  1  0
 21  3  1  0
 21  2  1  0
 22 15  1  0
 23  9  1  0
 23 27  1  0
 26 23  2  0
 27 17  2  0
 28 15  1  0
 28 29  1  0
 29 12  1  0
M  END
$$$$

     RDKit          3D

 27 30  0  0  0  0  0  0  0  0999 V2000
  -27.1622    6.1502    7.6211 C   0  0  0  0  0  0  0  0  0  0  0  0
  -29.0298   11.0595    6.6631 C   0  0  0  0  0  0  0  0  0  0  0  0
  -32.7539    6.5997    7.0759 C   0  0  0  0  0  0  0  0  0  0  0  0
  -29.3483   11.9040    5.5791 C   0  0  0  0  0  0  0  0  0  0  0  0
  -32.5300    8.4414    8.7299 N   0  0  0  0  0  0  0  0  0  0  0  0
  -34.2457    6.5615    7.3845 C   0  0  0  0  0  0  0  0  0  0  0  0
  -32.5078   10.8620    8.4574 C   0  0  0  0  0  0  0  0  0  0  0  0
  -31.8473   12.0074    7.7076 C   0  0  0  0  0  0  0  0  0  0  0  0
  -28.8061   11.6635    4.3010 C   0  0  0  0  0  0  0  0  0  0  0  0
  -26.7959    8.1656    6.3723 C   0  0  0  0  0  0  0  0  0  0  0  0
  -31.2089    5.0192    8.8353 O   0  0  0  0  0  0  0  0  0  0  0  0
  -32.0144    9.5307    7.9165 C   0  0  0  0  0  0  0  0  0  0  0  0
  -26.4164    6.7914    6.7113 C   0  0  0  0  0  0  0  0  0  0  0  0
  -31.9361    7.2104    8.2283 C   0  0  0  0  0  0  0  0  0  0  0  0
  -32.2526    5.1814    6.8007 C   0  0  0  0  0  0  0  0  0  0  0  0
  -33.8905   10.9470    8.2929 O   0  0  0  0  0  0  0  0  0  0  0  0
  -26.8059    8.6107    5.1539 N   0  0  0  0  0  0  0  0  0  0  0  0
  -27.9351   10.5821    4.0887 C   0  0  0  0  0  0  0  0  0  0  0  0
  -28.3587    6.7986    8.2207 C   0  0  0  0  0  0  0  0  0  0  0  0
  -30.4607   12.3124    8.2632 C   0  0  0  0  0  0  0  0  0  0  0  0
  -28.1733    9.9842    6.4181 C   0  0  0  0  0  0  0  0  0  0  0  0
  -32.1713    4.4395    8.0624 N   0  0  0  0  0  0  0  0  0  0  0  0
  -28.6037    8.1082    8.0476 C   0  0  0  0  0  0  0  0  0  0  0  0
  -29.5407   11.2709    7.9490 O   0  0  0  0  0  0  0  0  0  0  0  0
  -27.5953    8.9852    7.3524 C   0  0  0  0  0  0  0  0  0  0  0  0
  -27.6260    9.7679    5.1763 C   0  0  0  0  0  0  0  0  0  0  0  0
  -31.7813    6.1935    9.3578 C   0  0  0  0  0  0  0  0  0  0  0  0
  1 19  1  0
  2 24  1  0
  3 14  1  0
  3 15  1  0
  3  6  1  0
  4  2  4  0
  7 16  1  0
  8 20  1  0
  8  7  1  0
  9  4  4  0
 10 13  1  0
 10 25  1  0
 11 22  1  0
 12  5  1  0
 12  7  1  0
 13  1  2  0
 14  5  1  0
 14 27  1  0
 15 22  1  0
 17 26  1  0
 17 10  2  0
 18  9  4  0
 18 26  4  0
 21  2  4  0
 21 25  1  0
 23 19  2  0
 24 20  1  0
 25 23  1  0
 26 21  4  0
 27 11  1  0
M  END
$$$$

     RDKit          3D

 37 41  0  0  0  0  0  0  0  0999 V2000
  -31.5733    4.4094    9.0631 C   0  0  0  0  0  0  0  0  0  0  0  0
  -34.2067    5.7179    9.3722 C   0  0  0  0  0  0  0  0  0  0  0  0
  -29.2382   12.1489    5.8288 C   0  0  0  0  0  0  0  0  0  0  0  0
  -34.9550    5.1739    8.1645 C   0  0  0  0  0  0  0  0  0  0  0  0
  -31.4910   10.4841    6.6009 C   0  0  0  0  0  0  0  0  0  0  0  0
  -25.9892    7.8756    9.0453 C   0  0  0  0  0  0  0  0  0  0  0  0
  -28.4824    8.2530    7.8595 C   0  0  0  0  0  0  0  0  0  0  0  0
  -26.6060   11.3902    6.5886 C   0  0  0  0  0  0  0  0  0  0  0  0
  -34.5697    4.1948   11.1590 O   0  0  0  0  0  0  0  0  0  0  0  0
  -32.4174    9.3653    7.0185 C   0  0  0  0  0  0  0  0  0  0  0  0
  -32.1668    8.1023    6.2023 C   0  0  0  0  0  0  0  0  0  0  0  0
  -28.2559   13.0296    5.6545 C   0  0  0  0  0  0  0  0  0  0  0  0
  -36.2724    4.8850    8.5205 O   0  0  0  0  0  0  0  0  0  0  0  0
  -34.1600    4.9419    4.2701 O   0  0  0  0  0  0  0  0  0  0  0  0
  -26.9553   12.8666    6.3757 C   0  0  0  0  0  0  0  0  0  0  0  0
  -31.9379    9.4614    5.5759 C   0  0  0  0  0  0  0  0  0  0  0  0
  -32.4969    3.9722   10.0973 N   0  0  0  0  0  0  0  0  0  0  0  0
  -33.3835    5.1132    5.4225 C   0  0  0  0  0  0  0  0  0  0  0  0
  -26.2628    9.0745    8.3716 C   0  0  0  0  0  0  0  0  0  0  0  0
  -33.4052    7.5287    5.6962 N   0  0  0  0  0  0  0  0  0  0  0  0
  -30.1698   10.1814    7.0303 O   0  0  0  0  0  0  0  0  0  0  0  0
  -32.4804    4.2740    5.6753 O   0  0  0  0  0  0  0  0  0  0  0  0
  -32.0915    2.8761   10.9613 C   0  0  0  0  0  0  0  0  0  0  0  0
  -25.2403   10.1286    8.3000 C   0  0  0  0  0  0  0  0  0  0  0  0
  -24.1568   10.0224    8.9343 O   0  0  0  0  0  0  0  0  0  0  0  0
  -27.8046   10.5626    7.0476 C   0  0  0  0  0  0  0  0  0  0  0  0
  -33.5829    6.2570    6.3761 C   0  0  0  0  0  0  0  0  0  0  0  0
  -29.0516   10.9359    6.6593 C   0  0  0  0  0  0  0  0  0  0  0  0
  -25.9405   13.5036    5.6618 O   0  0  0  0  0  0  0  0  0  0  0  0
  -27.5271    9.2822    7.7776 C   0  0  0  0  0  0  0  0  0  0  0  0
  -25.4931   11.3012    7.5295 N   0  0  0  0  0  0  0  0  0  0  0  0
  -33.7775    4.5997   10.2658 C   0  0  0  0  0  0  0  0  0  0  0  0
  -34.9497    6.2020    7.0460 C   0  0  0  0  0  0  0  0  0  0  0  0
  -28.2023    7.0596    8.5273 C   0  0  0  0  0  0  0  0  0  0  0  0
  -35.2054    5.8291    3.8977 C   0  0  0  0  0  0  0  0  0  0  0  0
  -33.7515    9.7803    7.0381 O   0  0  0  0  0  0  0  0  0  0  0  0
  -26.9555    6.8718    9.1228 C   0  0  0  0  0  0  0  0  0  0  0  0
  1 17  1  0
  2 32  1  0
  3 28  1  0
  4 13  1  0
  4  2  1  0
  5 21  1  0
  5 10  1  0
  6 37  4  0
  7 34  4  0
  8 31  1  0
  8 26  1  0
 10 36  1  0
 11 20  1  0
 11 10  1  0
 12  3  2  0
 14 18  1  0
 15 29  1  0
 15 12  1  0
 15  8  1  0
 16  5  1  0
 16 11  1  0
 16 10  1  0
 17 23  1  0
 18 27  1  0
 18 22  2  0
 19 30  4  0
 19  6  4  0
 24 25  2  0
 24 19  1  0
 26 28  2  0
 26 30  1  0
 27 20  1  0
 27 33  1  0
 28 21  1  0
 30  7  4  0
 31 24  1  0
 32 17  1  0
 32  9  2  0
 33  4  1  0
 35 14  1  0
 37 34  4  0
M  END
$$$$

     RDKit          3D

 27 32  0  0  0  0  0  0  0  0999 V2000
  -34.0125    8.3765    5.4403 C   0  0  0  0  0  0  0  0  0  0  0  0
  -34.8228    7.4439    6.3060 C   0  0  0  0  0  0  0  0  0  0  0  0
  -28.5384   12.0374    6.5313 C   0  0  0  0  0  0  0  0  0  0  0  0
  -31.5085    7.9319    7.7781 C   0  0  0  0  0  0  0  0  0  0  0  0
  -31.5255    8.2139    5.3016 N   0  0  0  0  0  0  0  0  0  0  0  0
  -28.1848    8.3719    7.5881 C   0  0  0  0  0  0  0  0  0  0  0  0
  -26.9562    6.2164    9.0445 C   0  0  0  0  0  0  0  0  0  0  0  0
  -30.5530    7.3114    8.4612 C   0  0  0  0  0  0  0  0  0  0  0  0
  -29.0678    7.3596    8.3328 C   0  0  0  0  0  0  0  0  0  0  0  0
  -31.2933    8.8477    6.6186 C   0  0  0  0  0  0  0  0  0  0  0  0
  -28.4309    6.4144    9.0590 C   0  0  0  0  0  0  0  0  0  0  0  0
  -31.9731   10.2081    6.7622 C   0  0  0  0  0  0  0  0  0  0  0  0
  -26.5935   10.7356    5.5239 C   0  0  0  0  0  0  0  0  0  0  0  0
  -26.7436    8.0090    7.4648 C   0  0  0  0  0  0  0  0  0  0  0  0
  -28.4602    9.1742    6.4077 C   0  0  0  0  0  0  0  0  0  0  0  0
  -30.3273   11.6122    7.9501 O   0  0  0  0  0  0  0  0  0  0  0  0
  -32.9894    6.2761    5.9162 C   0  0  0  0  0  0  0  0  0  0  0  0
  -26.1456    6.9467    8.2771 C   0  0  0  0  0  0  0  0  0  0  0  0
  -28.4386    9.8895    7.7912 C   0  0  0  0  0  0  0  0  0  0  0  0
  -31.5549   10.8839    8.0778 C   0  0  0  0  0  0  0  0  0  0  0  0
  -26.1596    8.5190    6.4516 N   0  0  0  0  0  0  0  0  0  0  0  0
  -33.9415    6.5376    6.9056 O   0  0  0  0  0  0  0  0  0  0  0  0
  -27.2217   11.8794    5.8506 C   0  0  0  0  0  0  0  0  0  0  0  0
  -31.6581   11.0128    5.6762 O   0  0  0  0  0  0  0  0  0  0  0  0
  -29.1539   11.1625    7.3484 C   0  0  0  0  0  0  0  0  0  0  0  0
  -32.8190    7.5357    5.0874 C   0  0  0  0  0  0  0  0  0  0  0  0
  -27.0995    9.3229    5.6957 C   0  0  0  0  0  0  0  0  0  0  0  0
  2  1  1  0
  3 25  2  0
  6 14  1  0
  6  9  1  0
  7 11  1  0
  8  4  2  0
  8  9  1  0
  9 11  2  0
 10  5  1  0
 10  4  1  0
 10 12  1  0
 12 24  1  0
 13 23  2  0
 13 27  1  0
 14 18  1  0
 15 19  1  0
 15  6  1  0
 16 20  1  0
 18  7  2  0
 19 25  1  0
 19  6  1  0
 20 12  1  0
 21 14  2  0
 22 17  1  0
 22  2  1  0
 23  3  1  0
 25 16  1  0
 26 17  1  0
 26  5  1  0
 26  1  1  0
 27 15  1  0
 27 21  1  0
M  END
$$$$

     RDKit          3D

 24 26  0  0  0  0  0  0  0  0999 V2000
  -28.3903    7.7270    7.5574 C   0  0  0  0  0  0  0  0  0  0  0  0
  -25.7223    9.6329    6.1413 N   0  0  0  0  0  0  0  0  0  0  0  0
  -24.3302    9.8434    5.7736 C   0  0  0  0  0  0  0  0  0  0  0  0
  -25.5860    7.4004    7.1771 C   0  0  0  0  0  0  0  0  0  0  0  0
  -29.1398   11.8901    5.7150 C   0  0  0  0  0  0  0  0  0  0  0  0
  -26.7261   11.7322    5.3309 C   0  0  0  0  0  0  0  0  0  0  0  0
  -32.7977   12.5537    7.6893 O   0  0  0  0  0  0  0  0  0  0  0  0
  -27.7390    6.5578    7.9886 C   0  0  0  0  0  0  0  0  0  0  0  0
  -27.9387    9.9390    6.4193 C   0  0  0  0  0  0  0  0  0  0  0  0
  -33.5816    7.8015    8.2576 N   0  0  0  0  0  0  0  0  0  0  0  0
  -32.5170    6.4320    6.6899 O   0  0  0  0  0  0  0  0  0  0  0  0
  -32.7108    9.6620    6.9394 C   0  0  0  0  0  0  0  0  0  0  0  0
  -27.6117    8.7059    6.9438 C   0  0  0  0  0  0  0  0  0  0  0  0
  -30.3264   10.0401    6.8244 O   0  0  0  0  0  0  0  0  0  0  0  0
  -31.5929   10.6909    6.7948 C   0  0  0  0  0  0  0  0  0  0  0  0
  -26.2516    8.5524    6.7569 C   0  0  0  0  0  0  0  0  0  0  0  0
  -31.6713   11.7541    7.8840 C   0  0  0  0  0  0  0  0  0  0  0  0
  -32.5695    8.8458    8.2181 C   0  0  0  0  0  0  0  0  0  0  0  0
  -26.7592   10.4762    5.9377 C   0  0  0  0  0  0  0  0  0  0  0  0
  -34.5822    5.6073    7.5278 C   0  0  0  0  0  0  0  0  0  0  0  0
  -26.3487    6.3958    7.8001 C   0  0  0  0  0  0  0  0  0  0  0  0
  -29.1537   10.6186    6.3272 C   0  0  0  0  0  0  0  0  0  0  0  0
  -27.9366   12.4398    5.2230 C   0  0  0  0  0  0  0  0  0  0  0  0
  -33.4996    6.6223    7.4550 C   0  0  0  0  0  0  0  0  0  0  0  0
  1  8  4  0
  2 16  4  0
  3  2  1  0
  4 21  4  0
  5 22  4  0
  6 23  4  0
  6 19  4  0
  9 13  4  0
 10 18  1  0
 11 24  2  0
 12 18  1  0
 13  1  4  0
 15 12  1  0
 15 14  1  0
 15 17  1  0
 16 13  4  0
 16  4  4  0
 17  7  1  0
 19  2  4  0
 19  9  4  0
 21  8  4  0
 22  9  4  0
 22 14  1  0
 23  5  4  0
 24 10  1  0
 24 20  1  0
M  END
$$$$

     RDKit          3D

 21 23  0  0  0  0  0  0  0  0999 V2000
  -33.8485    6.9099    6.7810 C   0  0  0  0  0  0  0  0  0  0  0  0
  -27.6106    6.6440    8.1104 C   0  0  0  0  0  0  0  0  0  0  0  0
  -28.9559   10.8476    6.6101 C   0  0  0  0  0  0  0  0  0  0  0  0
  -25.5093    7.5514    7.1580 C   0  0  0  0  0  0  0  0  0  0  0  0
  -27.7278   12.6472    5.4887 C   0  0  0  0  0  0  0  0  0  0  0  0
  -33.6112    8.0381    7.6621 N   0  0  0  0  0  0  0  0  0  0  0  0
  -26.5849   10.6210    6.0872 C   0  0  0  0  0  0  0  0  0  0  0  0
  -27.5245    8.9017    7.0950 C   0  0  0  0  0  0  0  0  0  0  0  0
  -28.4045    7.8933    7.7681 C   0  0  0  0  0  0  0  0  0  0  0  0
  -31.3650   11.0112    7.1511 C   0  0  0  0  0  0  0  0  0  0  0  0
  -26.2990    6.4925    7.8323 C   0  0  0  0  0  0  0  0  0  0  0  0
  -34.7407    5.9045    7.4776 C   0  0  0  0  0  0  0  0  0  0  0  0
  -26.1293    8.6781    6.8260 C   0  0  0  0  0  0  0  0  0  0  0  0
  -28.9220   12.1327    6.0308 C   0  0  0  0  0  0  0  0  0  0  0  0
  -30.1268   10.3127    7.1557 O   0  0  0  0  0  0  0  0  0  0  0  0
  -32.7503    8.9579    6.9397 C   0  0  0  0  0  0  0  0  0  0  0  0
  -33.5895   10.9312    7.9791 O   0  0  0  0  0  0  0  0  0  0  0  0
  -32.4372   10.1637    7.8088 C   0  0  0  0  0  0  0  0  0  0  0  0
  -27.7663   10.1124    6.6235 C   0  0  0  0  0  0  0  0  0  0  0  0
  -25.5695    9.8146    6.1761 N   0  0  0  0  0  0  0  0  0  0  0  0
  -26.5449   11.8904    5.5136 C   0  0  0  0  0  0  0  0  0  0  0  0
  1  6  1  0
  1 12  1  0
  3 19  4  0
  3 15  1  0
  4 11  1  0
  5 14  4  0
  7 20  2  0
  7 19  4  0
  8  9  1  0
  9  2  1  0
 10 15  1  0
 10 18  1  0
 11  2  2  0
 13  8  1  0
 13  4  2  0
 14  3  4  0
 16  6  1  0
 16 18  1  0
 18 17  1  0
 19  8  2  0
 20 13  1  0
 21  5  4  0
 21  7  4  0
M  END
$$$$

     RDKit          3D

 29 34  0  0  0  0  0  0  0  0999 V2000
  -26.4252   11.5231    5.4350 C   0  0  0  0  0  0  0  0  0  0  0  0
  -26.4185    6.7849    8.3624 C   0  0  0  0  0  0  0  0  0  0  0  0
  -32.1532    5.4144    6.7486 C   0  0  0  0  0  0  0  0  0  0  0  0
  -32.4459   11.0299    7.2054 C   0  0  0  0  0  0  0  0  0  0  0  0
  -26.4731    7.9806    7.6401 C   0  0  0  0  0  0  0  0  0  0  0  0
  -25.3270    9.6841    6.4378 N   0  0  0  0  0  0  0  0  0  0  0  0
  -31.0089   11.2391    7.5858 C   0  0  0  0  0  0  0  0  0  0  0  0
  -32.8666    8.6901    6.7122 N   0  0  0  0  0  0  0  0  0  0  0  0
  -27.5841   12.2320    5.1409 C   0  0  0  0  0  0  0  0  0  0  0  0
  -33.3849    6.2119    6.6178 C   0  0  0  0  0  0  0  0  0  0  0  0
  -32.9510   12.2055    6.6519 O   0  0  0  0  0  0  0  0  0  0  0  0
  -32.4024    9.9490    6.1431 C   0  0  0  0  0  0  0  0  0  0  0  0
  -27.4812    3.9945   10.1994 N   0  0  0  0  0  0  0  0  0  0  0  0
  -27.5294    4.9849    9.6026 C   0  0  0  0  0  0  0  0  0  0  0  0
  -32.7741    6.0118    7.9871 C   0  0  0  0  0  0  0  0  0  0  0  0
  -27.7310    9.8495    6.6617 C   0  0  0  0  0  0  0  0  0  0  0  0
  -32.8040    7.5220    4.6925 O   0  0  0  0  0  0  0  0  0  0  0  0
  -26.4844   10.3467    6.1829 C   0  0  0  0  0  0  0  0  0  0  0  0
  -28.8141   11.7710    5.5982 C   0  0  0  0  0  0  0  0  0  0  0  0
  -27.7107    8.6311    7.4055 C   0  0  0  0  0  0  0  0  0  0  0  0
  -27.5890    6.2132    8.8624 C   0  0  0  0  0  0  0  0  0  0  0  0
  -32.9895    7.4920    5.9410 C   0  0  0  0  0  0  0  0  0  0  0  0
  -25.2964    8.5300    7.1462 C   0  0  0  0  0  0  0  0  0  0  0  0
  -28.8170    6.8364    8.6412 C   0  0  0  0  0  0  0  0  0  0  0  0
  -28.9115   10.5984    6.3626 C   0  0  0  0  0  0  0  0  0  0  0  0
  -33.1826    5.0230    5.7757 N   0  0  0  0  0  0  0  0  0  0  0  0
  -30.2834   10.1720    6.7991 C   0  0  0  0  0  0  0  0  0  0  0  0
  -28.8737    8.0315    7.9210 C   0  0  0  0  0  0  0  0  0  0  0  0
  -31.0752    9.8103    5.7001 O   0  0  0  0  0  0  0  0  0  0  0  0
  1  9  4  0
  1 18  4  0
  2 21  4  0
  3 15  1  0
  4 11  1  0
  5 20  4  0
  5  2  4  0
  6 23  4  0
  7  4  1  0
  9 19  4  0
 10 26  1  0
 10 22  1  0
 10  3  1  0
 10 15  1  0
 12  8  1  0
 12  4  1  0
 14 13  3  0
 16 25  4  0
 16 20  4  0
 17 22  2  0
 18  6  4  0
 18 16  4  0
 19 25  4  0
 20 28  4  0
 21 24  4  0
 21 14  1  0
 22  8  1  0
 23  5  4  0
 26  3  1  0
 27 25  1  0
 27  7  1  0
 28 24  4  0
 29 12  1  0
 29 27  1  0
M  END
$$$$

     RDKit          3D

 27 30  0  0  0  0  0  0  0  0999 V2000
  -27.4142    3.8860    8.5120 C   0  0  0  0  0  0  0  0  0  0  0  0
  -32.7524    7.2260    7.0193 C   0  0  0  0  0  0  0  0  0  0  0  0
  -26.4519    5.0318    8.6503 C   0  0  0  0  0  0  0  0  0  0  0  0
  -26.6460    3.9914   10.5809 C   0  0  0  0  0  0  0  0  0  0  0  0
  -26.2241    5.2014   10.0131 O   0  0  0  0  0  0  0  0  0  0  0  0
  -28.1394    6.9193    8.6264 C   0  0  0  0  0  0  0  0  0  0  0  0
  -26.9566    7.9794    6.3506 C   0  0  0  0  0  0  0  0  0  0  0  0
  -29.0753   10.8677    6.6836 C   0  0  0  0  0  0  0  0  0  0  0  0
  -28.0751    8.5734    6.8871 C   0  0  0  0  0  0  0  0  0  0  0  0
  -26.4412    8.6427    5.3691 N   0  0  0  0  0  0  0  0  0  0  0  0
  -28.4639   12.0513    6.5491 C   0  0  0  0  0  0  0  0  0  0  0  0
  -32.3640    9.6396    7.7487 C   0  0  0  0  0  0  0  0  0  0  0  0
  -31.1503    9.6729    7.1977 C   0  0  0  0  0  0  0  0  0  0  0  0
  -28.3426    9.6758    6.2045 C   0  0  0  0  0  0  0  0  0  0  0  0
  -33.7333   11.5512    7.5433 O   0  0  0  0  0  0  0  0  0  0  0  0
  -27.6517    3.4069    9.7975 O   0  0  0  0  0  0  0  0  0  0  0  0
  -33.1696    8.4573    7.6782 N   0  0  0  0  0  0  0  0  0  0  0  0
  -32.8590    7.3817    5.5143 C   0  0  0  0  0  0  0  0  0  0  0  0
  -26.5425   11.1019    5.3228 C   0  0  0  0  0  0  0  0  0  0  0  0
  -30.3506   10.8136    7.2533 O   0  0  0  0  0  0  0  0  0  0  0  0
  -33.6480    6.0900    7.4654 C   0  0  0  0  0  0  0  0  0  0  0  0
  -27.0172    6.2804    8.0511 C   0  0  0  0  0  0  0  0  0  0  0  0
  -32.9197   10.8451    8.4290 C   0  0  0  0  0  0  0  0  0  0  0  0
  -28.6689    8.0855    8.0524 C   0  0  0  0  0  0  0  0  0  0  0  0
  -27.2953    9.8073    5.1389 C   0  0  0  0  0  0  0  0  0  0  0  0
  -26.4075    6.8259    6.9083 C   0  0  0  0  0  0  0  0  0  0  0  0
  -27.1128   12.1515    5.9382 C   0  0  0  0  0  0  0  0  0  0  0  0
  1 16  1  0
  2 17  1  0
  2 21  1  0
  3 22  1  0
  3  1  1  0
  3  5  1  0
  5  4  1  0
  7  9  4  0
  7 26  4  0
  8 20  1  0
  9 24  4  0
 10  7  2  0
 11  8  2  0
 12 17  1  0
 12 23  1  0
 13 20  1  0
 13 12  2  3
 14  8  1  0
 14  9  2  0
 15 23  1  0
 16  4  1  0
 18  2  1  0
 22  6  4  0
 24  6  4  0
 25 19  1  0
 25 10  1  0
 25 14  1  0
 26 22  4  0
 27 19  2  0
 27 11  1  0
M  END
$$$$

     RDKit          3D

 37 43  0  0  0  0  0  0  0  0999 V2000
  -27.1604    5.5559   10.1687 N   0  0  0  0  0  0  0  0  0  0  0  0
  -25.8451    8.8225    5.4013 N   0  0  0  0  0  0  0  0  0  0  0  0
  -30.4620   10.5555    8.1013 C   0  0  0  0  0  0  0  0  0  0  0  0
  -33.2232    7.2666    6.7002 C   0  0  0  0  0  0  0  0  0  0  0  0
  -30.3027    9.9031    6.7452 C   0  0  0  0  0  0  0  0  0  0  0  0
  -25.7350    7.0597    7.1405 C   0  0  0  0  0  0  0  0  0  0  0  0
  -32.4516   10.4823    6.8163 C   0  0  0  0  0  0  0  0  0  0  0  0
  -27.5682   11.9856    5.0799 C   0  0  0  0  0  0  0  0  0  0  0  0
  -28.7921   11.6091    5.6622 C   0  0  0  0  0  0  0  0  0  0  0  0
  -33.8289    6.7078    7.8091 C   0  0  0  0  0  0  0  0  0  0  0  0
  -29.3385    5.0089    9.2933 O   0  0  0  0  0  0  0  0  0  0  0  0
  -35.1417    4.6132    7.6926 C   0  0  0  0  0  0  0  0  0  0  0  0
  -27.9547    9.3658    5.9336 C   0  0  0  0  0  0  0  0  0  0  0  0
  -27.9323    3.2334   10.1629 C   0  0  0  0  0  0  0  0  0  0  0  0
  -27.0173    2.2744    9.7317 O   0  0  0  0  0  0  0  0  0  0  0  0
  -28.3907    6.0451    9.5141 C   0  0  0  0  0  0  0  0  0  0  0  0
  -28.6733    3.8114    8.9503 C   0  0  0  0  0  0  0  0  0  0  0  0
  -28.9994   10.2905    6.1127 C   0  0  0  0  0  0  0  0  0  0  0  0
  -31.3831   10.2769    5.9315 O   0  0  0  0  0  0  0  0  0  0  0  0
  -33.1433    4.5182    8.7364 C   0  0  0  0  0  0  0  0  0  0  0  0
  -26.4630    6.5586    8.1468 C   0  0  0  0  0  0  0  0  0  0  0  0
  -35.2256    6.1380    7.6018 C   0  0  0  0  0  0  0  0  0  0  0  0
  -24.8489    5.5800    9.6306 O   0  0  0  0  0  0  0  0  0  0  0  0
  -32.9075    6.0278    8.8126 C   0  0  0  0  0  0  0  0  0  0  0  0
  -28.6152    7.4604    7.4167 C   0  0  0  0  0  0  0  0  0  0  0  0
  -27.9157    6.6669    8.2327 C   0  0  0  0  0  0  0  0  0  0  0  0
  -26.0377    5.8900    9.3517 C   0  0  0  0  0  0  0  0  0  0  0  0
  -26.7473    9.7489    5.3828 C   0  0  0  0  0  0  0  0  0  0  0  0
  -31.9591   12.3778    8.1545 O   0  0  0  0  0  0  0  0  0  0  0  0
  -27.2005    4.3262   10.9483 C   0  0  0  0  0  0  0  0  0  0  0  0
  -26.4729    7.6225    5.9454 C   0  0  0  0  0  0  0  0  0  0  0  0
  -32.6455    7.1769    5.5861 O   0  0  0  0  0  0  0  0  0  0  0  0
  -26.5280   11.0541    4.9461 C   0  0  0  0  0  0  0  0  0  0  0  0
  -34.5130    4.2328    8.8935 O   0  0  0  0  0  0  0  0  0  0  0  0
  -33.7903    8.0968    7.8615 N   0  0  0  0  0  0  0  0  0  0  0  0
  -27.8482    8.1059    6.3321 C   0  0  0  0  0  0  0  0  0  0  0  0
  -31.8978   10.9849    8.1297 C   0  0  0  0  0  0  0  0  0  0  0  0
  1 30  1  0
  2 31  1  0
  3 37  1  0
  4 10  1  0
  4 35  1  0
  5 18  1  0
  5  3  1  0
  6 21  2  0
  7 37  1  0
  8  9  4  0
  9 18  4  0
 10 35  1  0
 10 22  1  0
 10 24  1  0
 11 17  1  0
 12 22  1  0
 12 34  1  0
 13 36  2  0
 14 15  1  0
 16 26  1  0
 16  1  1  0
 16 11  1  0
 17 14  1  0
 18 13  4  0
 19  7  1  0
 19  5  1  0
 20 34  1  0
 21 26  1  0
 21 27  1  0
 24 20  1  0
 25 26  2  0
 27 23  2  0
 27  1  1  0
 28  2  2  0
 28 13  4  0
 30 14  1  0
 31 36  1  0
 31  6  1  0
 32  4  2  0
 33  8  4  0
 33 28  4  0
 36 25  1  0
 37 29  1  0
M  END
$$$$

     RDKit          3D

 27 31  0  0  0  0  0  0  0  0999 V2000
  -31.1080   10.0997    7.2828 O   0  0  0  0  0  0  0  0  0  0  0  0
  -25.6072   11.3775    6.5637 N   0  0  0  0  0  0  0  0  0  0  0  0
  -29.9611    9.4371    6.8070 C   0  0  0  0  0  0  0  0  0  0  0  0
  -33.5179    4.1138    7.5429 O   0  0  0  0  0  0  0  0  0  0  0  0
  -26.3414    7.6459    8.1824 C   0  0  0  0  0  0  0  0  0  0  0  0
  -27.2003   12.2722    5.0392 C   0  0  0  0  0  0  0  0  0  0  0  0
  -32.3078    8.0090    7.2281 C   0  0  0  0  0  0  0  0  0  0  0  0
  -27.0259    9.8703    7.5946 C   0  0  0  0  0  0  0  0  0  0  0  0
  -28.5198   12.1747    4.5720 C   0  0  0  0  0  0  0  0  0  0  0  0
  -36.1720    6.1769    8.6030 C   0  0  0  0  0  0  0  0  0  0  0  0
  -32.8803    9.8139    8.6959 O   0  0  0  0  0  0  0  0  0  0  0  0
  -29.4144   11.2537    5.1476 C   0  0  0  0  0  0  0  0  0  0  0  0
  -27.3460    8.5267    8.0932 C   0  0  0  0  0  0  0  0  0  0  0  0
  -25.6254   10.3937    7.6433 C   0  0  0  0  0  0  0  0  0  0  0  0
  -29.0049   10.4198    6.2058 C   0  0  0  0  0  0  0  0  0  0  0  0
  -31.1101    7.3944    6.5039 C   0  0  0  0  0  0  0  0  0  0  0  0
  -24.9682    8.0062    7.7398 C   0  0  0  0  0  0  0  0  0  0  0  0
  -26.8109   11.4522    6.0968 C   0  0  0  0  0  0  0  0  0  0  0  0
  -35.3460    7.1698    7.7749 C   0  0  0  0  0  0  0  0  0  0  0  0
  -24.6414    9.2722    7.4294 C   0  0  0  0  0  0  0  0  0  0  0  0
  -35.5092    4.8924    8.4929 N   0  0  0  0  0  0  0  0  0  0  0  0
  -27.6900   10.5636    6.6812 C   0  0  0  0  0  0  0  0  0  0  0  0
  -32.9304    7.0043    8.0769 N   0  0  0  0  0  0  0  0  0  0  0  0
  -34.0633    6.4553    7.3466 C   0  0  0  0  0  0  0  0  0  0  0  0
  -30.3423    8.4301    5.8156 N   0  0  0  0  0  0  0  0  0  0  0  0
  -31.8024    9.1744    8.0829 C   0  0  0  0  0  0  0  0  0  0  0  0
  -34.3042    5.0670    7.7823 C   0  0  0  0  0  0  0  0  0  0  0  0
  1 26  1  0
  2 14  1  0
  3 15  1  0
  3  1  1  0
  6  9  4  0
  6 18  4  0
  7 23  1  0
  7 26  1  0
  8 13  1  0
  9 12  4  0
 12 15  4  0
 13  5  2  0
 14 20  1  0
 14  8  1  0
 16  7  1  0
 17  5  1  0
 18  2  2  0
 18 22  4  0
 19 10  1  0
 20 17  2  0
 21 10  1  0
 22 15  4  0
 22  8  2  0
 24 23  1  0
 24 27  1  0
 24 19  1  0
 25 16  1  0
 25  3  1  0
 26 11  1  0
 27 21  1  0
 27  4  2  0
M  END
$$$$

     RDKit          3D

 24 27  0  0  0  0  0  0  0  0999 V2000
  -25.8505    7.2939    5.6792 C   0  0  0  0  0  0  0  0  0  0  0  0
  -28.5706    7.6872    6.6600 C   0  0  0  0  0  0  0  0  0  0  0  0
  -32.0550    9.9558    8.2193 C   0  0  0  0  0  0  0  0  0  0  0  0
  -28.0693    6.4424    6.6233 C   0  0  0  0  0  0  0  0  0  0  0  0
  -27.7623   12.7602    5.2607 C   0  0  0  0  0  0  0  0  0  0  0  0
  -30.6459    7.8968    7.9142 C   0  0  0  0  0  0  0  0  0  0  0  0
  -27.6561    8.7975    6.2998 C   0  0  0  0  0  0  0  0  0  0  0  0
  -26.7264   10.5908    5.3998 C   0  0  0  0  0  0  0  0  0  0  0  0
  -34.1574    7.6050    8.7070 C   0  0  0  0  0  0  0  0  0  0  0  0
  -26.6804   11.9191    4.9613 C   0  0  0  0  0  0  0  0  0  0  0  0
  -28.8646   12.2876    6.0101 C   0  0  0  0  0  0  0  0  0  0  0  0
  -28.8900   10.9605    6.4745 C   0  0  0  0  0  0  0  0  0  0  0  0
  -26.3592    8.5235    5.7255 C   0  0  0  0  0  0  0  0  0  0  0  0
  -34.5313    6.1359    8.6430 C   0  0  0  0  0  0  0  0  0  0  0  0
  -34.9930    8.2675    9.7871 C   0  0  0  0  0  0  0  0  0  0  0  0
  -29.8715   10.5256    7.3659 O   0  0  0  0  0  0  0  0  0  0  0  0
  -27.8329   10.1096    6.1062 C   0  0  0  0  0  0  0  0  0  0  0  0
  -33.3610   10.4296    8.2375 O   0  0  0  0  0  0  0  0  0  0  0  0
  -30.0156    7.9072    6.7470 C   0  0  0  0  0  0  0  0  0  0  0  0
  -32.0470    8.4209    7.9740 C   0  0  0  0  0  0  0  0  0  0  0  0
  -26.5848    6.1706    6.3890 C   0  0  0  0  0  0  0  0  0  0  0  0
  -31.2614   10.7747    7.1944 C   0  0  0  0  0  0  0  0  0  0  0  0
  -32.7492    7.7339    9.0542 N   0  0  0  0  0  0  0  0  0  0  0  0
  -25.8186    9.6992    5.1410 N   0  0  0  0  0  0  0  0  0  0  0  0
  1 21  1  0
  2  4  2  0
  3 18  1  0
  5 11  4  0
  6 20  1  0
  6 19  2  0
  7  2  1  0
  8 24  2  0
  8 17  4  0
  9 23  1  0
  9 14  1  0
 10  5  4  0
 10  8  4  0
 11 12  4  0
 12 16  1  0
 13  7  1  0
 13  1  2  0
 15  9  1  0
 16 22  1  0
 17 12  4  0
 17  7  2  0
 19  2  1  0
 20 23  1  0
 20  3  1  0
 21  4  1  0
 22  3  1  0
 24 13  1  0
M  END
$$$$

     RDKit          3D

 21 23  0  0  0  0  0  0  0  0999 V2000
  -26.1467    8.6039    6.7479 C   0  0  0  0  0  0  0  0  0  0  0  0
  -28.2086    7.8705    7.7971 C   0  0  0  0  0  0  0  0  0  0  0  0
  -28.9264   10.8139    6.5241 C   0  0  0  0  0  0  0  0  0  0  0  0
  -27.5542    6.6890    8.1864 C   0  0  0  0  0  0  0  0  0  0  0  0
  -33.6812    8.1845    7.9065 N   0  0  0  0  0  0  0  0  0  0  0  0
  -26.4854   11.8708    5.1841 C   0  0  0  0  0  0  0  0  0  0  0  0
  -25.6010    9.6996    6.0077 N   0  0  0  0  0  0  0  0  0  0  0  0
  -33.5219   11.0785    8.1563 O   0  0  0  0  0  0  0  0  0  0  0  0
  -27.8095   12.6116    5.2338 C   0  0  0  0  0  0  0  0  0  0  0  0
  -27.8022   10.1005    6.5239 C   0  0  0  0  0  0  0  0  0  0  0  0
  -28.9122   12.1318    5.8405 C   0  0  0  0  0  0  0  0  0  0  0  0
  -30.1037   10.3167    7.1638 N   0  0  0  0  0  0  0  0  0  0  0  0
  -34.0268    7.0516    7.0683 C   0  0  0  0  0  0  0  0  0  0  0  0
  -32.4149   10.2619    7.9251 C   0  0  0  0  0  0  0  0  0  0  0  0
  -34.9102    6.0992    7.8461 C   0  0  0  0  0  0  0  0  0  0  0  0
  -25.4798    7.4396    7.1240 C   0  0  0  0  0  0  0  0  0  0  0  0
  -26.1995    6.4750    7.8524 C   0  0  0  0  0  0  0  0  0  0  0  0
  -31.3579   11.0535    7.1779 C   0  0  0  0  0  0  0  0  0  0  0  0
  -26.5738   10.5523    5.8896 C   0  0  0  0  0  0  0  0  0  0  0  0
  -32.8352    9.0526    7.1068 C   0  0  0  0  0  0  0  0  0  0  0  0
  -27.4688    8.8061    7.0776 C   0  0  0  0  0  0  0  0  0  0  0  0
  1 21  4  0
  1 16  4  0
  2  4  4  0
  3 12  1  0
  6  9  1  0
  6 19  1  0
  7  1  1  0
  9 11  2  0
 10  3  2  0
 10 21  1  0
 11  3  1  0
 13  5  1  0
 13 15  1  0
 14  8  1  0
 16 17  4  0
 17  4  4  0
 18 12  1  0
 18 14  1  0
 19  7  2  0
 19 10  1  0
 20  5  1  0
 20 14  1  0
 21  2  4  0
M  END
$$$$

     RDKit          3D

 29 33  0  0  0  0  0  0  0  0999 V2000
  -26.7222   10.7772    6.2986 C   0  0  0  0  0  0  0  0  0  0  0  0
  -27.2352    6.5961    7.9121 C   0  0  0  0  0  0  0  0  0  0  0  0
  -25.9470    8.9351    7.0083 C   0  0  0  0  0  0  0  0  0  0  0  0
  -26.3724    4.6678    8.6529 C   0  0  0  0  0  0  0  0  0  0  0  0
  -32.0193    8.4262    5.9050 C   0  0  0  0  0  0  0  0  0  0  0  0
  -34.5715    6.9967    7.2151 C   0  0  0  0  0  0  0  0  0  0  0  0
  -32.5543    9.9007    7.9273 C   0  0  0  0  0  0  0  0  0  0  0  0
  -30.0001    5.3762    8.3858 C   0  0  0  0  0  0  0  0  0  0  0  0
  -29.2765   11.7941    5.9142 C   0  0  0  0  0  0  0  0  0  0  0  0
  -35.6196    6.5340    6.2251 C   0  0  0  0  0  0  0  0  0  0  0  0
  -35.1130    6.8454    8.6234 C   0  0  0  0  0  0  0  0  0  0  0  0
  -28.0239    7.6001    7.5270 C   0  0  0  0  0  0  0  0  0  0  0  0
  -30.3190    9.6442    6.7549 C   0  0  0  0  0  0  0  0  0  0  0  0
  -25.2743    5.5327    8.3178 N   0  0  0  0  0  0  0  0  0  0  0  0
  -31.0511   10.1920    7.9893 C   0  0  0  0  0  0  0  0  0  0  0  0
  -25.6068   10.1237    6.5484 O   0  0  0  0  0  0  0  0  0  0  0  0
  -33.1993   10.9491    7.2656 O   0  0  0  0  0  0  0  0  0  0  0  0
  -31.1912    9.5406    5.6568 O   0  0  0  0  0  0  0  0  0  0  0  0
  -34.2486    8.3916    6.9600 N   0  0  0  0  0  0  0  0  0  0  0  0
  -25.7828    6.6421    7.8915 C   0  0  0  0  0  0  0  0  0  0  0  0
  -27.3324    8.8123    7.0589 C   0  0  0  0  0  0  0  0  0  0  0  0
  -27.8274   10.0099    6.5974 C   0  0  0  0  0  0  0  0  0  0  0  0
  -28.1437   12.5788    5.6083 C   0  0  0  0  0  0  0  0  0  0  0  0
  -24.9935    7.8417    7.4280 C   0  0  0  0  0  0  0  0  0  0  0  0
  -29.1294   10.4850    6.4158 C   0  0  0  0  0  0  0  0  0  0  0  0
  -26.8457   12.0717    5.7996 C   0  0  0  0  0  0  0  0  0  0  0  0
  -32.8254    8.5665    7.2143 C   0  0  0  0  0  0  0  0  0  0  0  0
  -28.7854    4.6910    8.6482 O   0  0  0  0  0  0  0  0  0  0  0  0
  -27.5359    5.2717    8.4225 C   0  0  0  0  0  0  0  0  0  0  0  0
  1 16  4  0
  1 22  4  0
  2 29  1  0
  3 21  4  0
  3 24  1  0
  5 27  1  0
  6 19  1  0
  6 11  1  0
  7 17  1  0
  9 25  4  0
 10  6  1  0
 12  2  2  0
 13 25  1  0
 13 15  1  0
 14  4  1  0
 15  7  1  0
 16  3  4  0
 18  5  1  0
 18 13  1  0
 20  2  1  0
 20 14  2  0
 21 12  1  0
 22 21  4  0
 23 26  4  0
 23  9  4  0
 24 20  1  0
 25 22  4  0
 26  1  4  0
 27 19  1  0
 27  7  1  0
 28  8  1  0
 29  4  2  0
 29 28  1  0
M  END
$$$$

     RDKit          3D

 27 31  0  0  0  0  0  0  0  0999 V2000
  -29.1342    8.5100    9.5102 C   0  0  0  0  0  0  0  0  0  0  0  0
  -28.0068    6.5461   10.4347 C   0  0  0  0  0  0  0  0  0  0  0  0
  -32.7107   10.7305    5.6757 O   0  0  0  0  0  0  0  0  0  0  0  0
  -30.4687    6.7153    5.5117 C   0  0  0  0  0  0  0  0  0  0  0  0
  -27.5844    8.4518    6.4281 C   0  0  0  0  0  0  0  0  0  0  0  0
  -32.6481    5.3917    5.2117 C   0  0  0  0  0  0  0  0  0  0  0  0
  -31.1138    5.3533    5.2242 C   0  0  0  0  0  0  0  0  0  0  0  0
  -33.1827    6.4691    6.1506 C   0  0  0  0  0  0  0  0  0  0  0  0
  -27.4826    7.2812    8.1990 C   0  0  0  0  0  0  0  0  0  0  0  0
  -28.3377   10.1810    4.9273 C   0  0  0  0  0  0  0  0  0  0  0  0
  -31.0297   11.4764    8.1731 C   0  0  0  0  0  0  0  0  0  0  0  0
  -32.4607   10.9626    8.0447 C   0  0  0  0  0  0  0  0  0  0  0  0
  -31.3475    7.8617    5.0180 C   0  0  0  0  0  0  0  0  0  0  0  0
  -28.3766    8.2768    8.3942 C   0  0  0  0  0  0  0  0  0  0  0  0
  -30.0830   10.3694    8.2628 N   0  0  0  0  0  0  0  0  0  0  0  0
  -28.4346    8.9728    7.3390 C   0  0  0  0  0  0  0  0  0  0  0  0
  -26.9450    7.3539    6.9404 N   0  0  0  0  0  0  0  0  0  0  0  0
  -30.0256    9.6148    9.4320 C   0  0  0  0  0  0  0  0  0  0  0  0
  -32.6383   10.1586    6.7976 C   0  0  0  0  0  0  0  0  0  0  0  0
  -29.2251   10.6824    5.9314 C   0  0  0  0  0  0  0  0  0  0  0  0
  -29.2729   10.0431    7.1891 C   0  0  0  0  0  0  0  0  0  0  0  0
  -32.6743    8.7334    6.8901 N   0  0  0  0  0  0  0  0  0  0  0  0
  -27.2614    6.3643    9.2309 C   0  0  0  0  0  0  0  0  0  0  0  0
  -27.5034    9.0477    5.1663 C   0  0  0  0  0  0  0  0  0  0  0  0
  -32.7158    7.8671    5.7218 C   0  0  0  0  0  0  0  0  0  0  0  0
  -28.9461    7.6156   10.5797 C   0  0  0  0  0  0  0  0  0  0  0  0
  -33.3484   12.0387    8.0535 O   0  0  0  0  0  0  0  0  0  0  0  0
  1 18  4  0
  1 26  4  0
  2 26  4  0
  3 19  2  0
  5 17  4  0
  5 16  4  0
  6  8  1  0
  6  7  1  0
  7  4  1  0
  9 14  4  0
  9 23  4  0
 10 20  4  0
 11 12  1  0
 12 27  1  0
 13  4  1  0
 14  1  4  0
 15 11  1  0
 15 18  4  0
 16 21  4  0
 16 14  2  0
 17  9  4  0
 19 22  1  0
 19 12  1  0
 20 21  4  0
 21 15  4  0
 23  2  4  0
 24 10  4  0
 24  5  4  0
 25 22  1  0
 25  8  1  0
 25 13  1  0
M  END
$$$$

     RDKit          3D

 37 41  0  0  0  0  0  0  0  0999 V2000
  -28.5430    7.1900    6.9339 C   0  0  0  0  0  0  0  0  0  0  0  0
  -25.5189   10.1263    9.1301 C   0  0  0  0  0  0  0  0  0  0  0  0
  -27.6403   11.0407    6.7724 C   0  0  0  0  0  0  0  0  0  0  0  0
  -36.8947    4.9410    4.1304 F   0  0  0  0  0  0  0  0  0  0  0  0
  -32.9748   10.3395    6.8924 O   0  0  0  0  0  0  0  0  0  0  0  0
  -26.8493   12.1792    8.8372 C   0  0  0  0  0  0  0  0  0  0  0  0
  -37.7528    6.8169    5.9003 O   0  0  0  0  0  0  0  0  0  0  0  0
  -26.7055    5.7847    7.6846 C   0  0  0  0  0  0  0  0  0  0  0  0
  -24.8100    6.7172    9.0071 C   0  0  0  0  0  0  0  0  0  0  0  0
  -28.5111    9.7695    6.9040 C   0  0  0  0  0  0  0  0  0  0  0  0
  -35.5160    7.2856    6.6305 C   0  0  0  0  0  0  0  0  0  0  0  0
  -25.5536   13.4793   10.2286 O   0  0  0  0  0  0  0  0  0  0  0  0
  -26.8850   13.1960    9.9114 C   0  0  0  0  0  0  0  0  0  0  0  0
  -27.7966   12.0338    7.9037 C   0  0  0  0  0  0  0  0  0  0  0  0
  -25.4937   11.5999    8.7744 C   0  0  0  0  0  0  0  0  0  0  0  0
  -31.8245    9.5519    7.0499 C   0  0  0  0  0  0  0  0  0  0  0  0
  -32.4908    8.6932    4.6952 N   0  0  0  0  0  0  0  0  0  0  0  0
  -24.7943   12.3383    9.8878 C   0  0  0  0  0  0  0  0  0  0  0  0
  -30.9800    7.3891    6.0814 C   0  0  0  0  0  0  0  0  0  0  0  0
  -34.0614    7.3196    6.1574 C   0  0  0  0  0  0  0  0  0  0  0  0
  -30.6767   10.4655    7.5013 C   0  0  0  0  0  0  0  0  0  0  0  0
  -31.4673    8.7598    5.7647 C   0  0  0  0  0  0  0  0  0  0  0  0
  -33.6742    5.9644    5.5579 C   0  0  0  0  0  0  0  0  0  0  0  0
  -34.7397    5.3235    4.7804 N   0  0  0  0  0  0  0  0  0  0  0  0
  -25.0797    5.8731    9.9192 O   0  0  0  0  0  0  0  0  0  0  0  0
  -27.6785    8.4334    6.9474 C   0  0  0  0  0  0  0  0  0  0  0  0
  -36.4315    6.9573    5.4632 C   0  0  0  0  0  0  0  0  0  0  0  0
  -29.7678    7.2271    6.4947 C   0  0  0  0  0  0  0  0  0  0  0  0
  -27.9511    5.8837    7.2394 C   0  0  0  0  0  0  0  0  0  0  0  0
  -25.8085    6.9804    7.9002 C   0  0  0  0  0  0  0  0  0  0  0  0
  -29.4701    9.8461    7.9610 O   0  0  0  0  0  0  0  0  0  0  0  0
  -35.9674    5.7181    4.7483 C   0  0  0  0  0  0  0  0  0  0  0  0
  -26.5824    8.3098    8.0552 C   0  0  0  0  0  0  0  0  0  0  0  0
  -33.8803    8.4711    5.1506 C   0  0  0  0  0  0  0  0  0  0  0  0
  -25.5931    9.3638    7.8991 N   0  0  0  0  0  0  0  0  0  0  0  0
  -23.5726    7.3693    9.0076 O   0  0  0  0  0  0  0  0  0  0  0  0
  -30.4896   11.5621    6.6400 O   0  0  0  0  0  0  0  0  0  0  0  0
  1 29  1  0
  2 35  1  0
  6 15  1  0
  6 14  2  0
  8 29  2  0
  9 36  1  0
 10  3  1  0
 10 26  1  0
 10 31  1  0
 11 27  1  0
 12 18  1  0
 13 12  1  0
 13  6  1  0
 14  3  1  0
 15 18  1  0
 15  2  1  0
 16  5  1  0
 19 22  1  0
 19 28  2  0
 20 34  1  0
 20 11  1  0
 20 23  1  0
 21 37  1  0
 21 16  1  0
 22 17  1  0
 22 16  1  0
 23 24  1  0
 24 32  2  0
 25  9  2  0
 26  1  1  0
 27  7  1  0
 27 32  1  0
 28  1  2  0
 30  9  1  0
 30  8  1  0
 31 21  1  0
 32  4  1  0
 33 35  1  0
 33 30  1  0
 33 26  1  0
 34 17  1  0
M  END
$$$$

     RDKit          3D

 27 30  0  0  0  0  0  0  0  0999 V2000
  -27.1856    6.2734    8.1972 C   0  0  0  0  0  0  0  0  0  0  0  0
  -26.1435   11.3950    5.5410 C   0  0  0  0  0  0  0  0  0  0  0  0
  -28.7213   11.1028    6.6846 C   0  0  0  0  0  0  0  0  0  0  0  0
  -34.8647    7.3187    6.2609 C   0  0  0  0  0  0  0  0  0  0  0  0
  -27.8123    8.8512    7.3274 C   0  0  0  0  0  0  0  0  0  0  0  0
  -26.8990    5.0713    8.6099 C   0  0  0  0  0  0  0  0  0  0  0  0
  -30.8457    8.4972    6.7495 O   0  0  0  0  0  0  0  0  0  0  0  0
  -26.6268    3.9294    9.0020 O   0  0  0  0  0  0  0  0  0  0  0  0
  -32.1614    9.0176    6.8365 C   0  0  0  0  0  0  0  0  0  0  0  0
  -26.4940   10.2441    6.2444 C   0  0  0  0  0  0  0  0  0  0  0  0
  -33.5070   10.9972    6.9968 O   0  0  0  0  0  0  0  0  0  0  0  0
  -26.5469    8.3273    7.1428 C   0  0  0  0  0  0  0  0  0  0  0  0
  -31.1707   11.3570    6.7237 C   0  0  0  0  0  0  0  0  0  0  0  0
  -29.9421   11.0075    7.3347 O   0  0  0  0  0  0  0  0  0  0  0  0
  -28.4902    6.7752    8.3579 C   0  0  0  0  0  0  0  0  0  0  0  0
  -33.4338    5.7462    7.5232 C   0  0  0  0  0  0  0  0  0  0  0  0
  -27.7664   10.0762    6.7854 C   0  0  0  0  0  0  0  0  0  0  0  0
  -25.7092    9.2322    6.4340 N   0  0  0  0  0  0  0  0  0  0  0  0
  -33.0328    8.1457    7.6193 N   0  0  0  0  0  0  0  0  0  0  0  0
  -32.0044    5.2948    7.7559 C   0  0  0  0  0  0  0  0  0  0  0  0
  -26.2014    7.0473    7.5669 C   0  0  0  0  0  0  0  0  0  0  0  0
  -30.2655    8.4690    8.0312 C   0  0  0  0  0  0  0  0  0  0  0  0
  -32.2556   10.4763    7.3245 C   0  0  0  0  0  0  0  0  0  0  0  0
  -33.4558    7.0545    6.7537 C   0  0  0  0  0  0  0  0  0  0  0  0
  -28.8310    8.0685    7.9252 C   0  0  0  0  0  0  0  0  0  0  0  0
  -27.1067   12.4031    5.3904 C   0  0  0  0  0  0  0  0  0  0  0  0
  -28.3849   12.2603    5.9590 C   0  0  0  0  0  0  0  0  0  0  0  0
  1  6  2  0
  1 15  4  0
  2 26  4  0
  2 10  4  0
  3 14  1  0
  5 25  4  0
  8  6  2  0
  9 19  1  0
  9  7  1  0
  9 23  1  0
 10 18  2  0
 10 17  4  0
 12  5  4  0
 12 21  4  0
 13 23  1  0
 14 13  1  0
 16 20  1  0
 17  3  4  0
 17  5  2  0
 18 12  1  0
 21  1  4  0
 22  7  1  0
 23 11  1  0
 24  4  1  0
 24 19  1  0
 24 16  1  0
 25 22  1  0
 25 15  4  0
 26 27  4  0
 27  3  4  0
M  END
$$$$
