
     RDKit          3D

 21 23  0  0  0  0  0  0  0  0999 V2000
  -27.5220    8.8990    6.9720 C   0  0  0  0  0  0  0  0  0  0  0  0
  -32.2760   10.1850    8.1430 C   0  0  0  0  0  0  0  0  0  0  0  0
  -25.6030    7.3470    7.0010 C   0  0  0  0  0  0  0  0  0  0  0  0
  -35.1960    6.3510    8.0280 C   0  0  0  0  0  0  0  0  0  0  0  0
  -28.2760    7.9370    7.6250 C   0  0  0  0  0  0  0  0  0  0  0  0
  -30.0930   10.2780    6.9900 N   0  0  0  0  0  0  0  0  0  0  0  0
  -33.7230    8.2500    7.6230 N   0  0  0  0  0  0  0  0  0  0  0  0
  -33.5340   10.9030    8.1600 O   0  0  0  0  0  0  0  0  0  0  0  0
  -26.6050   11.8990    5.3460 C   0  0  0  0  0  0  0  0  0  0  0  0
  -28.9260   10.8440    6.5170 C   0  0  0  0  0  0  0  0  0  0  0  0
  -31.2840   11.0580    7.3610 C   0  0  0  0  0  0  0  0  0  0  0  0
  -25.5420    9.6890    6.0560 N   0  0  0  0  0  0  0  0  0  0  0  0
  -32.3980    8.8510    7.3380 C   0  0  0  0  0  0  0  0  0  0  0  0
  -28.9050   12.1410    5.9720 C   0  0  0  0  0  0  0  0  0  0  0  0
  -27.7310   10.1360    6.4780 C   0  0  0  0  0  0  0  0  0  0  0  0
  -27.7670   12.6240    5.3900 C   0  0  0  0  0  0  0  0  0  0  0  0
  -26.2130    8.5820    6.6810 C   0  0  0  0  0  0  0  0  0  0  0  0
  -26.4000    6.4370    7.6330 C   0  0  0  0  0  0  0  0  0  0  0  0
  -33.9100    6.7870    7.3620 C   0  0  0  0  0  0  0  0  0  0  0  0
  -27.7210    6.7010    7.9580 C   0  0  0  0  0  0  0  0  0  0  0  0
  -26.5550   10.5620    5.9110 C   0  0  0  0  0  0  0  0  0  0  0  0
  1  5  1  0
  2  8  1  0
  3 18  1  0
  5 20  2  0
  6 11  1  0
  9 16  4  0
  9 21  4  0
 10  6  1  0
 11  2  1  0
 12 17  1  0
 13  7  1  0
 13  2  1  0
 14 10  4  0
 15 10  4  0
 15  1  2  0
 16 14  4  0
 17  1  1  0
 17  3  2  0
 18 20  1  0
 19  7  1  0
 19  4  1  0
 21 12  2  0
 21 15  4  0
M  END
$$$$

     RDKit          3D

 29 31  0  0  0  0  0  0  0  0999 V2000
  -33.6830    8.2370    7.5800 N   0  0  0  0  0  0  0  0  0  0  0  0
  -27.4440    8.8720    7.0180 C   0  0  0  0  0  0  0  0  0  0  0  0
  -25.5860    9.6440    5.9950 N   0  0  0  0  0  0  0  0  0  0  0  0
  -28.8960   12.1280    5.9800 C   0  0  0  0  0  0  0  0  0  0  0  0
  -33.1280    4.9230    9.3360 C   0  0  0  0  0  0  0  0  0  0  0  0
  -27.7400   10.1290    6.5010 C   0  0  0  0  0  0  0  0  0  0  0  0
  -32.5970    7.7820    5.1320 O   0  0  0  0  0  0  0  0  0  0  0  0
  -25.5820    7.3420    6.9990 C   0  0  0  0  0  0  0  0  0  0  0  0
  -32.8090    6.2850    8.7240 C   0  0  0  0  0  0  0  0  0  0  0  0
  -26.3600    6.4610    7.7150 C   0  0  0  0  0  0  0  0  0  0  0  0
  -33.5080   10.9650    8.1770 O   0  0  0  0  0  0  0  0  0  0  0  0
  -26.6190   10.6180    5.9000 C   0  0  0  0  0  0  0  0  0  0  0  0
  -26.5820   11.9260    5.3230 C   0  0  0  0  0  0  0  0  0  0  0  0
  -32.3950    8.9620    7.2070 C   0  0  0  0  0  0  0  0  0  0  0  0
  -32.0540    7.4250    5.6160 C   0  0  0  0  0  0  0  0  0  0  0  0
  -26.1660    8.5670    6.6320 C   0  0  0  0  0  0  0  0  0  0  0  0
  -31.0960   11.1860    7.6940 C   0  0  0  0  0  0  0  0  0  0  0  0
  -34.4540    4.5300    9.3470 N   0  0  0  0  0  0  0  0  0  0  0  0
  -30.9290    9.2890    6.6050 C   0  0  0  0  0  0  0  0  0  0  0  0
  -27.7310   12.6240    5.3900 C   0  0  0  0  0  0  0  0  0  0  0  0
  -28.8900   10.8170    6.5100 C   0  0  0  0  0  0  0  0  0  0  0  0
  -33.7440    6.7600    7.5990 C   0  0  0  0  0  0  0  0  0  0  0  0
  -28.2730    7.9300    7.6470 C   0  0  0  0  0  0  0  0  0  0  0  0
  -27.7110    6.6860    8.0020 C   0  0  0  0  0  0  0  0  0  0  0  0
  -32.2600   10.2450    8.1470 C   0  0  0  0  0  0  0  0  0  0  0  0
  -24.4270    9.7420    5.5810 O   0  0  0  0  0  0  0  0  0  0  0  0
  -35.1590    6.3650    7.9610 C   0  0  0  0  0  0  0  0  0  0  0  0
  -30.0730   10.3420    7.1800 O   0  0  0  0  0  0  0  0  0  0  0  0
  -35.2470    4.8840    8.2120 C   0  0  0  0  0  0  0  0  0  0  0  0
  1 22  1  0
  2 23  4  0
  3 16  4  0
  4 21  4  0
  5 18  1  0
  6 21  4  0
  6  2  4  0
  7 15  2  0
  8 10  4  0
  9  5  1  0
 10 24  4  0
 12  3  4  0
 12  6  4  0
 13 20  4  0
 13 12  4  0
 14 19  1  0
 14  1  1  0
 14 25  1  0
 16  8  4  0
 16  2  4  0
 17 25  1  0
 20  4  4  0
 21 28  1  0
 22 27  1  0
 22  9  1  0
 23 24  4  0
 25 11  1  0
 26  3  1  0
 27 29  1  0
 28 17  1  0
 29 18  1  0
M  END
$$$$

     RDKit          3D

 27 30  0  0  0  0  0  0  0  0999 V2000
  -28.9210   12.1350    6.0030 C   0  0  0  0  0  0  0  0  0  0  0  0
  -27.5120    8.8460    6.9960 C   0  0  0  0  0  0  0  0  0  0  0  0
  -34.4990    5.0470    8.3660 C   0  0  0  0  0  0  0  0  0  0  0  0
  -29.9200   10.4500    7.4210 O   0  0  0  0  0  0  0  0  0  0  0  0
  -32.3290   10.0600    8.1080 C   0  0  0  0  0  0  0  0  0  0  0  0
  -27.7030    6.7390    8.0170 C   0  0  0  0  0  0  0  0  0  0  0  0
  -26.4140    6.4280    7.6940 C   0  0  0  0  0  0  0  0  0  0  0  0
  -27.7770   10.1050    6.5080 C   0  0  0  0  0  0  0  0  0  0  0  0
  -35.1780    6.3530    7.9740 C   0  0  0  0  0  0  0  0  0  0  0  0
  -33.9510    6.8550    7.1980 C   0  0  0  0  0  0  0  0  0  0  0  0
  -31.2560   10.8740    7.3980 C   0  0  0  0  0  0  0  0  0  0  0  0
  -26.5770   11.8430    5.3320 C   0  0  0  0  0  0  0  0  0  0  0  0
  -34.3040    4.6270    6.9170 C   0  0  0  0  0  0  0  0  0  0  0  0
  -27.7880   12.6490    5.4020 C   0  0  0  0  0  0  0  0  0  0  0  0
  -26.1650    8.5610    6.7100 C   0  0  0  0  0  0  0  0  0  0  0  0
  -33.5280    5.6100    6.4020 O   0  0  0  0  0  0  0  0  0  0  0  0
  -25.6100    9.6950    6.0240 N   0  0  0  0  0  0  0  0  0  0  0  0
  -31.5430    8.1010    6.9080 O   0  0  0  0  0  0  0  0  0  0  0  0
  -28.2760    7.9310    7.6570 C   0  0  0  0  0  0  0  0  0  0  0  0
  -32.5210    8.7140    7.4800 C   0  0  0  0  0  0  0  0  0  0  0  0
  -28.8960   10.8710    6.5960 C   0  0  0  0  0  0  0  0  0  0  0  0
  -26.5630   10.6100    5.8910 C   0  0  0  0  0  0  0  0  0  0  0  0
  -33.4690   10.8600    8.1250 O   0  0  0  0  0  0  0  0  0  0  0  0
  -25.5710    7.3850    6.9880 C   0  0  0  0  0  0  0  0  0  0  0  0
  -34.6340    3.5590    6.5090 O   0  0  0  0  0  0  0  0  0  0  0  0
  -33.7010    8.2140    7.6100 N   0  0  0  0  0  0  0  0  0  0  0  0
  -31.6150   11.0160    5.9830 C   0  0  0  0  0  0  0  0  0  0  0  0
  1 21  1  0
  2 19  4  0
  5 23  1  0
  7  6  4  0
  8 21  1  0
  8  2  2  0
  9  3  1  0
 10 26  1  0
 10  9  1  0
 11 27  1  0
 11  4  1  0
 11  5  1  0
 12 14  1  0
 12 22  2  0
 13  3  1  0
 14  1  2  0
 15 24  4  0
 15  2  4  0
 16 13  1  0
 16 10  1  0
 17 15  2  0
 18 20  2  0
 19  6  4  0
 20 26  1  0
 20  5  1  0
 21  4  1  0
 22 17  1  0
 22  8  1  0
 24  7  4  0
 25 13  2  0
M  END
$$$$

     RDKit          3D

 37 40  0  0  0  0  0  0  0  0999 V2000
  -35.2490    6.4070    8.0360 C   0  0  0  0  0  0  0  0  0  0  0  0
  -26.5570   10.6100    5.9420 C   0  0  0  0  0  0  0  0  0  0  0  0
  -36.6030    6.4680   10.0300 C   0  0  0  0  0  0  0  0  0  0  0  0
  -35.5390    4.4440    9.5260 N   0  0  0  0  0  0  0  0  0  0  0  0
  -36.5560    3.6930   10.0470 N   0  0  0  0  0  0  0  0  0  0  0  0
  -33.6970    8.2460    7.6170 N   0  0  0  0  0  0  0  0  0  0  0  0
  -34.2840    3.8170    9.4400 C   0  0  0  0  0  0  0  0  0  0  0  0
  -26.4260    6.3990    7.7170 C   0  0  0  0  0  0  0  0  0  0  0  0
  -28.9050   10.9000    6.6420 C   0  0  0  0  0  0  0  0  0  0  0  0
  -25.9870    5.0570    8.1610 C   0  0  0  0  0  0  0  0  0  0  0  0
  -31.2400   10.6780    7.0150 C   0  0  0  0  0  0  0  0  0  0  0  0
  -28.2780    7.9530    7.6720 C   0  0  0  0  0  0  0  0  0  0  0  0
  -27.7000   13.9250    4.7110 C   0  0  0  0  0  0  0  0  0  0  0  0
  -26.1140    8.5630    6.6730 C   0  0  0  0  0  0  0  0  0  0  0  0
  -33.2090    4.8650    9.4710 C   0  0  0  0  0  0  0  0  0  0  0  0
  -32.4140    8.7580    7.6400 C   0  0  0  0  0  0  0  0  0  0  0  0
  -26.1060    4.9700    9.4440 F   0  0  0  0  0  0  0  0  0  0  0  0
  -31.3460    8.3330    6.6490 C   0  0  0  0  0  0  0  0  0  0  0  0
  -37.8840    5.7070   10.5620 C   0  0  0  0  0  0  0  0  0  0  0  0
  -29.9450   10.4770    7.3690 O   0  0  0  0  0  0  0  0  0  0  0  0
  -35.7670    5.6790    9.1230 C   0  0  0  0  0  0  0  0  0  0  0  0
  -25.0330    9.3360    4.7000 O   0  0  0  0  0  0  0  0  0  0  0  0
  -33.2230    6.3640    6.9380 O   0  0  0  0  0  0  0  0  0  0  0  0
  -26.5800   11.8280    5.3100 C   0  0  0  0  0  0  0  0  0  0  0  0
  -27.7660   12.6060    5.4060 C   0  0  0  0  0  0  0  0  0  0  0  0
  -37.7580    4.2050   10.4020 C   0  0  0  0  0  0  0  0  0  0  0  0
  -27.7690   10.1060    6.5180 C   0  0  0  0  0  0  0  0  0  0  0  0
  -33.9330    6.8920    7.3900 C   0  0  0  0  0  0  0  0  0  0  0  0
  -32.2630   10.2050    8.0470 C   0  0  0  0  0  0  0  0  0  0  0  0
  -33.4620   11.0010    8.1490 O   0  0  0  0  0  0  0  0  0  0  0  0
  -25.3660    9.6820    6.0250 C   0  0  0  0  0  0  0  0  0  0  0  0
  -27.7290    6.7330    7.9800 C   0  0  0  0  0  0  0  0  0  0  0  0
  -25.5850    7.3030    7.0120 C   0  0  0  0  0  0  0  0  0  0  0  0
  -28.9240   12.1550    6.0570 C   0  0  0  0  0  0  0  0  0  0  0  0
  -25.0370    4.6810    7.4900 F   0  0  0  0  0  0  0  0  0  0  0  0
  -27.4490    8.8430    7.0140 C   0  0  0  0  0  0  0  0  0  0  0  0
  -24.4780   10.0010    7.0690 O   0  0  0  0  0  0  0  0  0  0  0  0
  2 31  1  0
  2 27  4  0
  3 19  1  0
  4  5  1  0
  5 26  1  0
  6 16  1  0
  7 15  1  0
  7  4  1  0
  8 32  4  0
  8 10  1  0
  9 20  1  0
 10 17  1  0
 11 20  1  0
 11 29  1  0
 12 32  4  0
 13 25  1  0
 14 33  4  0
 14 36  4  0
 16 18  1  0
 16 29  1  0
 21  1  1  0
 21  4  1  0
 21  3  1  0
 22 31  1  0
 23 28  2  0
 24 25  4  0
 24  2  4  0
 25 34  4  0
 26 19  1  0
 27  9  4  0
 27 36  1  0
 28  6  1  0
 28  1  1  0
 29 30  1  0
 31 14  1  0
 31 37  1  0
 33  8  4  0
 34  9  4  0
 35 10  1  0
 36 12  4  0
M  END
$$$$

     RDKit          3D

 27 29  0  0  0  0  0  0  0  0999 V2000
  -34.8020    5.2780    8.7620 C   0  0  0  0  0  0  0  0  0  0  0  0
  -34.0000    7.0090    7.1990 C   0  0  0  0  0  0  0  0  0  0  0  0
  -28.8980   12.1350    6.0440 C   0  0  0  0  0  0  0  0  0  0  0  0
  -25.5860    7.3300    6.9790 C   0  0  0  0  0  0  0  0  0  0  0  0
  -26.1280    8.5270    6.6620 C   0  0  0  0  0  0  0  0  0  0  0  0
  -27.7790   12.6370    5.3640 C   0  0  0  0  0  0  0  0  0  0  0  0
  -32.5540    9.0230    7.0940 C   0  0  0  0  0  0  0  0  0  0  0  0
  -26.3610    6.4060    7.6790 C   0  0  0  0  0  0  0  0  0  0  0  0
  -25.6420    9.6670    5.9820 N   0  0  0  0  0  0  0  0  0  0  0  0
  -33.4190    6.4740    6.2670 O   0  0  0  0  0  0  0  0  0  0  0  0
  -27.7670   10.1020    6.5270 C   0  0  0  0  0  0  0  0  0  0  0  0
  -31.3340    8.1650    6.8180 C   0  0  0  0  0  0  0  0  0  0  0  0
  -35.1470    6.3250    7.9530 C   0  0  0  0  0  0  0  0  0  0  0  0
  -28.9480   10.8810    6.6280 C   0  0  0  0  0  0  0  0  0  0  0  0
  -27.5030    8.8170    6.9760 C   0  0  0  0  0  0  0  0  0  0  0  0
  -32.3010   10.1480    8.0840 C   0  0  0  0  0  0  0  0  0  0  0  0
  -33.4800   10.9580    8.1590 O   0  0  0  0  0  0  0  0  0  0  0  0
  -25.5250    4.9950    9.3550 O   0  0  0  0  0  0  0  0  0  0  0  0
  -30.0190   10.3630    7.2150 O   0  0  0  0  0  0  0  0  0  0  0  0
  -25.7500    5.1520    8.0150 C   0  0  0  0  0  0  0  0  0  0  0  0
  -26.0710    3.7780    9.8870 C   0  0  0  0  0  0  0  0  0  0  0  0
  -27.6990    6.7310    8.0190 C   0  0  0  0  0  0  0  0  0  0  0  0
  -26.6430   10.6060    5.9180 C   0  0  0  0  0  0  0  0  0  0  0  0
  -26.6310   11.8900    5.3270 C   0  0  0  0  0  0  0  0  0  0  0  0
  -28.2730    7.9370    7.6630 C   0  0  0  0  0  0  0  0  0  0  0  0
  -33.6740    8.2200    7.6160 N   0  0  0  0  0  0  0  0  0  0  0  0
  -31.2040   11.1110    7.4930 C   0  0  0  0  0  0  0  0  0  0  0  0
  2 26  1  0
  2 13  1  0
  3 14  1  0
  4  8  4  0
  5 15  4  0
  5  4  4  0
  6  3  2  0
  7 12  1  0
  7 26  1  0
  7 16  1  0
  8 20  1  0
  8 22  4  0
  9  5  2  0
 10  2  2  0
 11 14  1  0
 11 15  2  0
 13  1  2  0
 14 19  1  0
 15 25  4  0
 16 17  1  0
 18 21  1  0
 19 27  1  0
 20 18  1  0
 23  9  1  0
 23 11  1  0
 24  6  1  0
 24 23  2  0
 25 22  4  0
 27 16  1  0
M  END
$$$$

     RDKit          3D

 24 28  0  0  0  0  0  0  0  0999 V2000
  -35.2090    6.2620    8.0120 C   0  0  0  0  0  0  0  0  0  0  0  0
  -33.5020   10.9680    8.1690 O   0  0  0  0  0  0  0  0  0  0  0  0
  -28.9090   12.1460    5.9990 C   0  0  0  0  0  0  0  0  0  0  0  0
  -32.1840   10.4440    8.2050 C   0  0  0  0  0  0  0  0  0  0  0  0
  -32.5490    7.3550    5.8770 O   0  0  0  0  0  0  0  0  0  0  0  0
  -27.4570    8.8120    6.9870 C   0  0  0  0  0  0  0  0  0  0  0  0
  -29.9180   10.4360    7.2940 O   0  0  0  0  0  0  0  0  0  0  0  0
  -25.6100    9.6600    6.0060 N   0  0  0  0  0  0  0  0  0  0  0  0
  -34.1750    6.8400    7.1690 C   0  0  0  0  0  0  0  0  0  0  0  0
  -31.0180   11.1900    7.6950 C   0  0  0  0  0  0  0  0  0  0  0  0
  -32.4020    8.1580    7.0990 C   0  0  0  0  0  0  0  0  0  0  0  0
  -27.7960   12.6650    5.4140 C   0  0  0  0  0  0  0  0  0  0  0  0
  -26.3400    6.4420    7.6780 C   0  0  0  0  0  0  0  0  0  0  0  0
  -33.7800    8.2370    7.6000 N   0  0  0  0  0  0  0  0  0  0  0  0
  -26.6060   10.6360    5.9140 C   0  0  0  0  0  0  0  0  0  0  0  0
  -28.8310   10.8300    6.5340 C   0  0  0  0  0  0  0  0  0  0  0  0
  -26.1230    8.5660    6.6460 C   0  0  0  0  0  0  0  0  0  0  0  0
  -27.7180    6.7150    8.0030 C   0  0  0  0  0  0  0  0  0  0  0  0
  -31.7590   10.8300    6.4400 C   0  0  0  0  0  0  0  0  0  0  0  0
  -25.5450    7.3770    6.9720 C   0  0  0  0  0  0  0  0  0  0  0  0
  -26.6520   11.9120    5.3660 C   0  0  0  0  0  0  0  0  0  0  0  0
  -31.9400    9.5350    7.0150 C   0  0  0  0  0  0  0  0  0  0  0  0
  -27.6750   10.1040    6.4900 C   0  0  0  0  0  0  0  0  0  0  0  0
  -28.2950    7.9580    7.6610 C   0  0  0  0  0  0  0  0  0  0  0  0
  3 16  1  0
  4  2  1  0
  6 24  4  0
  8 17  2  0
  9 14  1  0
  9  1  1  0
 10  7  1  0
 10  4  1  0
 11  5  1  0
 11 14  1  0
 12  3  2  0
 13 18  4  0
 15  8  1  0
 15 23  1  0
 16  7  1  0
 17 20  4  0
 17  6  4  0
 19 22  1  0
 19 10  1  0
 19  4  1  0
 20 13  4  0
 21 12  1  0
 21 15  2  0
 22 11  1  0
 22  4  1  0
 23 16  1  0
 23  6  2  0
 24 18  4  0
M  END
$$$$

     RDKit          3D

 21 21  0  0  0  0  0  0  0  0999 V2000
  -33.7180    8.2450    7.6450 N   0  0  0  0  0  0  0  0  0  0  0  0
  -31.1830   10.7530    7.2440 C   0  0  0  0  0  0  0  0  0  0  0  0
  -28.8650   10.8730    6.6010 C   0  0  0  0  0  0  0  0  0  0  0  0
  -26.4540    6.4330    7.7010 C   0  0  0  0  0  0  0  0  0  0  0  0
  -33.4830   10.9510    8.1890 O   0  0  0  0  0  0  0  0  0  0  0  0
  -26.6010   11.8880    5.3170 C   0  0  0  0  0  0  0  0  0  0  0  0
  -26.5870   10.5940    5.9190 C   0  0  0  0  0  0  0  0  0  0  0  0
  -30.5590   11.6450    8.1470 C   0  0  0  0  0  0  0  0  0  0  0  0
  -33.6880    6.7820    7.4320 C   0  0  0  0  0  0  0  0  0  0  0  0
  -25.4550    9.8880    5.7690 N   0  0  0  0  0  0  0  0  0  0  0  0
  -35.0080    6.2250    7.8070 C   0  0  0  0  0  0  0  0  0  0  0  0
  -27.6980    6.7120    7.9940 C   0  0  0  0  0  0  0  0  0  0  0  0
  -27.6840   10.0860    6.5200 C   0  0  0  0  0  0  0  0  0  0  0  0
  -28.9670   12.1000    5.9900 C   0  0  0  0  0  0  0  0  0  0  0  0
  -27.2030    8.6480    6.9270 C   0  0  0  0  0  0  0  0  0  0  0  0
  -32.2520   10.1070    8.0840 C   0  0  0  0  0  0  0  0  0  0  0  0
  -29.9370   10.1780    7.2750 O   0  0  0  0  0  0  0  0  0  0  0  0
  -28.2590    7.9270    7.6470 C   0  0  0  0  0  0  0  0  0  0  0  0
  -27.7490   12.6620    5.4150 C   0  0  0  0  0  0  0  0  0  0  0  0
  -32.5900    8.9900    7.1760 C   0  0  0  0  0  0  0  0  0  0  0  0
  -25.5850    7.4810    6.9130 C   0  0  0  0  0  0  0  0  0  0  0  0
  2 17  1  0
  2 16  1  0
  2  8  1  0
  3 17  1  0
  4 12  2  3
  6 19  4  0
  6  7  4  0
  7 13  4  0
  9  1  1  0
  9 11  1  0
 10  7  1  0
 13  3  4  0
 13 15  1  0
 14  3  4  0
 15 18  1  0
 16  5  1  0
 18 12  1  0
 19 14  4  0
 20  1  1  0
 20 16  1  0
 21  4  1  0
M  END
$$$$

     RDKit          3D

 29 31  0  0  0  0  0  0  0  0999 V2000
  -27.7720   12.6150    5.3890 C   0  0  0  0  0  0  0  0  0  0  0  0
  -33.4290   10.9250    8.1360 O   0  0  0  0  0  0  0  0  0  0  0  0
  -27.6790   10.0800    6.4190 C   0  0  0  0  0  0  0  0  0  0  0  0
  -28.2950    7.9480    7.6860 C   0  0  0  0  0  0  0  0  0  0  0  0
  -32.1900   10.6590    8.2550 C   0  0  0  0  0  0  0  0  0  0  0  0
  -33.5020    4.9890    6.0060 O   0  0  0  0  0  0  0  0  0  0  0  0
  -33.8230    6.0040    6.2710 C   0  0  0  0  0  0  0  0  0  0  0  0
  -25.3520   10.0200    5.4810 N   0  0  0  0  0  0  0  0  0  0  0  0
  -26.0980    8.4930    6.8390 C   0  0  0  0  0  0  0  0  0  0  0  0
  -26.5370   10.5780    5.7500 C   0  0  0  0  0  0  0  0  0  0  0  0
  -33.7130    8.2270    7.6260 N   0  0  0  0  0  0  0  0  0  0  0  0
  -31.3500    9.9500    6.3930 O   0  0  0  0  0  0  0  0  0  0  0  0
  -35.1510    6.4090    7.9750 C   0  0  0  0  0  0  0  0  0  0  0  0
  -25.6310    7.1730    7.1060 C   0  0  0  0  0  0  0  0  0  0  0  0
  -27.7050    6.7230    7.9630 C   0  0  0  0  0  0  0  0  0  0  0  0
  -25.0080    9.0770    6.2340 C   0  0  0  0  0  0  0  0  0  0  0  0
  -28.9350   12.1110    5.9910 C   0  0  0  0  0  0  0  0  0  0  0  0
  -34.4690    6.5450    5.1940 O   0  0  0  0  0  0  0  0  0  0  0  0
  -32.4560    8.1440    7.6150 C   0  0  0  0  0  0  0  0  0  0  0  0
  -31.6180    9.4050    7.6900 C   0  0  0  0  0  0  0  0  0  0  0  0
  -31.6960    7.1420    7.7830 O   0  0  0  0  0  0  0  0  0  0  0  0
  -31.5560   11.3250    6.9280 C   0  0  0  0  0  0  0  0  0  0  0  0
  -27.3990    8.8730    6.9670 C   0  0  0  0  0  0  0  0  0  0  0  0
  -34.1110    6.9070    7.2460 C   0  0  0  0  0  0  0  0  0  0  0  0
  -26.3890    6.3470    7.7150 C   0  0  0  0  0  0  0  0  0  0  0  0
  -25.5240    4.8040    8.2390 N   0  0  0  0  0  0  0  0  0  0  0  0
  -28.7940   10.8070    6.5380 C   0  0  0  0  0  0  0  0  0  0  0  0
  -30.6950   12.1550    7.2730 O   0  0  0  0  0  0  0  0  0  0  0  0
  -26.6270   11.8890    5.3060 C   0  0  0  0  0  0  0  0  0  0  0  0
  1 17  4  0
  3 27  4  0
  3 23  1  0
  4 15  4  0
  5  2  1  0
  6  7  1  0
  7 24  1  0
  8 10  1  0
  8 16  1  0
  9 23  4  0
  9 14  4  0
 10  3  4  0
 12 22  1  0
 12 20  1  0
 14 25  4  0
 16  9  1  0
 17 27  4  0
 18  7  2  0
 19 11  1  0
 19 21  2  0
 20 19  1  0
 20  5  1  0
 22 28  1  0
 22  5  1  0
 23  4  4  0
 24 11  1  0
 24 13  2  0
 25 15  4  0
 25 26  1  0
 29  1  4  0
 29 10  4  0
M  END
$$$$

     RDKit          3D

 27 30  0  0  0  0  0  0  0  0999 V2000
  -25.5320    9.6430    5.9710 N   0  0  0  0  0  0  0  0  0  0  0  0
  -27.6580    6.7420    7.9670 C   0  0  0  0  0  0  0  0  0  0  0  0
  -32.3010   10.2520    7.9370 C   0  0  0  0  0  0  0  0  0  0  0  0
  -26.6220   11.8550    5.3310 C   0  0  0  0  0  0  0  0  0  0  0  0
  -26.4590   10.6450    5.9390 C   0  0  0  0  0  0  0  0  0  0  0  0
  -33.8800    5.9510    7.3680 C   0  0  0  0  0  0  0  0  0  0  0  0
  -33.4540   10.9290    8.1710 O   0  0  0  0  0  0  0  0  0  0  0  0
  -31.6370    7.0490    7.7290 C   0  0  0  0  0  0  0  0  0  0  0  0
  -30.0540   10.3400    7.1550 O   0  0  0  0  0  0  0  0  0  0  0  0
  -27.8900    5.3320    8.5780 C   0  0  0  0  0  0  0  0  0  0  0  0
  -26.0750    8.5680    6.6430 C   0  0  0  0  0  0  0  0  0  0  0  0
  -33.7490    8.2410    7.6060 N   0  0  0  0  0  0  0  0  0  0  0  0
  -27.7190   10.0600    6.5850 C   0  0  0  0  0  0  0  0  0  0  0  0
  -27.4180    8.9080    7.3130 C   0  0  0  0  0  0  0  0  0  0  0  0
  -28.9120   10.8240    6.5500 C   0  0  0  0  0  0  0  0  0  0  0  0
  -27.7670   12.6320    5.4100 C   0  0  0  0  0  0  0  0  0  0  0  0
  -26.3080    6.5070    7.6370 C   0  0  0  0  0  0  0  0  0  0  0  0
  -25.5630    7.3800    7.0100 C   0  0  0  0  0  0  0  0  0  0  0  0
  -27.7490    4.2970    9.0720 N   0  0  0  0  0  0  0  0  0  0  0  0
  -28.2390    7.9440    7.6530 C   0  0  0  0  0  0  0  0  0  0  0  0
  -31.0880   10.9940    7.6950 C   0  0  0  0  0  0  0  0  0  0  0  0
  -33.4540    4.9080    7.9770 O   0  0  0  0  0  0  0  0  0  0  0  0
  -33.2130    7.0630    7.6410 C   0  0  0  0  0  0  0  0  0  0  0  0
  -28.9010   12.1240    5.9840 C   0  0  0  0  0  0  0  0  0  0  0  0
  -32.5340    9.1000    7.3870 C   0  0  0  0  0  0  0  0  0  0  0  0
  -35.1840    6.3450    7.9800 C   0  0  0  0  0  0  0  0  0  0  0  0
  -31.2610    8.2780    7.1540 C   0  0  0  0  0  0  0  0  0  0  0  0
  1 11  4  0
  2 10  1  0
  3  7  1  0
  4 16  4  0
  4  5  4  0
  5  1  4  0
  5 13  4  0
  6 22  1  0
  6 26  1  0
  9 21  1  0
 10 19  3  0
 11 18  4  0
 11 14  4  0
 12 23  1  0
 13 14  4  0
 14 20  4  0
 15 13  4  0
 15  9  1  0
 16 24  4  0
 17  2  4  0
 18 17  4  0
 20  2  4  0
 21  3  1  0
 23  6  1  0
 23  8  1  0
 24 15  4  0
 25 12  1  0
 25  3  1  0
 27 25  1  0
 27  8  1  0
M  END
$$$$

     RDKit          3D

 37 39  0  0  0  0  0  0  0  0999 V2000
  -34.2630    4.8490    6.6780 F   0  0  0  0  0  0  0  0  0  0  0  0
  -32.7230    6.2480    6.8950 C   0  0  0  0  0  0  0  0  0  0  0  0
  -28.9250   12.1440    6.0370 C   0  0  0  0  0  0  0  0  0  0  0  0
  -29.5990    8.7370    7.5950 C   0  0  0  0  0  0  0  0  0  0  0  0
  -30.9640    8.1930    8.0320 O   0  0  0  0  0  0  0  0  0  0  0  0
  -32.8110    5.8180    8.4090 C   0  0  0  0  0  0  0  0  0  0  0  0
  -25.2560    8.3220    6.5190 C   0  0  0  0  0  0  0  0  0  0  0  0
  -26.5620   10.5690    5.6990 C   0  0  0  0  0  0  0  0  0  0  0  0
  -32.3280    8.7320    7.6640 C   0  0  0  0  0  0  0  0  0  0  0  0
  -26.3580    9.1700    3.9730 C   0  0  0  0  0  0  0  0  0  0  0  0
  -32.2570   10.1910    7.9870 C   0  0  0  0  0  0  0  0  0  0  0  0
  -31.2580   12.2240    7.2590 O   0  0  0  0  0  0  0  0  0  0  0  0
  -27.4310    8.8280    7.0410 C   0  0  0  0  0  0  0  0  0  0  0  0
  -33.9880    6.6870    7.4330 C   0  0  0  0  0  0  0  0  0  0  0  0
  -32.6190    7.0270    5.6580 O   0  0  0  0  0  0  0  0  0  0  0  0
  -24.2210    8.8350    6.2930 O   0  0  0  0  0  0  0  0  0  0  0  0
  -33.7830    5.0740    9.3930 F   0  0  0  0  0  0  0  0  0  0  0  0
  -28.7880   10.8790    6.5560 C   0  0  0  0  0  0  0  0  0  0  0  0
  -25.0820   12.8210    3.7320 O   0  0  0  0  0  0  0  0  0  0  0  0
  -27.7960   12.6890    5.3580 C   0  0  0  0  0  0  0  0  0  0  0  0
  -33.6770    8.2340    7.6030 N   0  0  0  0  0  0  0  0  0  0  0  0
  -31.5730    4.9780    8.3770 F   0  0  0  0  0  0  0  0  0  0  0  0
  -33.4680   10.9350    8.1480 O   0  0  0  0  0  0  0  0  0  0  0  0
  -26.6380   12.0100    5.2900 C   0  0  0  0  0  0  0  0  0  0  0  0
  -25.6410    7.2890    7.0250 C   0  0  0  0  0  0  0  0  0  0  0  0
  -35.6740    4.0510    8.5080 F   0  0  0  0  0  0  0  0  0  0  0  0
  -29.9290   10.2200    7.0600 C   0  0  0  0  0  0  0  0  0  0  0  0
  -27.6740    6.7310    8.0000 C   0  0  0  0  0  0  0  0  0  0  0  0
  -27.5610   10.0790    6.4570 C   0  0  0  0  0  0  0  0  0  0  0  0
  -25.6510    9.8220    5.0230 N   0  0  0  0  0  0  0  0  0  0  0  0
  -35.2460    6.3600    8.0190 C   0  0  0  0  0  0  0  0  0  0  0  0
  -26.3560    6.4400    7.6630 C   0  0  0  0  0  0  0  0  0  0  0  0
  -25.4060   12.7420    4.9330 C   0  0  0  0  0  0  0  0  0  0  0  0
  -28.3000    7.9330    7.5890 C   0  0  0  0  0  0  0  0  0  0  0  0
  -35.1460    5.1040    9.0160 C   0  0  0  0  0  0  0  0  0  0  0  0
  -31.3160   10.8250    6.9830 C   0  0  0  0  0  0  0  0  0  0  0  0
  -24.7730   13.2360    5.8130 O   0  0  0  0  0  0  0  0  0  0  0  0
  2 15  1  0
  2 14  1  0
  2  6  1  0
  3 18  4  0
  4  5  1  0
  6 22  1  0
  7 25  2  0
  8 29  4  0
  9 21  1  0
  9 11  1  0
  9  5  1  0
 10 30  1  0
 11 23  1  0
 13 34  4  0
 14 21  1  0
 14 31  1  0
 14  6  1  0
 16  7  1  0
 18 27  4  0
 19 33  2  0
 20  3  4  0
 24 20  4  0
 24  8  4  0
 25 32  2  0
 26 35  1  0
 27  4  4  0
 29 18  4  0
 29 13  4  0
 30  8  1  0
 31 35  1  0
 32 28  1  0
 33 24  1  0
 33 37  1  0
 34  4  4  0
 34 28  1  0
 35 17  1  0
 36 27  1  0
 36 12  1  0
 36 11  1  0
M  END
$$$$

     RDKit          3D

 27 29  0  0  0  0  0  0  0  0999 V2000
  -33.6880    8.3410    7.5860 N   0  0  0  0  0  0  0  0  0  0  0  0
  -30.4980    9.1930    7.0870 C   0  0  0  0  0  0  0  0  0  0  0  0
  -25.1840    9.3540    6.3330 N   0  0  0  0  0  0  0  0  0  0  0  0
  -33.5070   10.9370    8.1450 O   0  0  0  0  0  0  0  0  0  0  0  0
  -33.4260    7.4330    6.7130 C   0  0  0  0  0  0  0  0  0  0  0  0
  -32.1550   10.2880    8.1500 C   0  0  0  0  0  0  0  0  0  0  0  0
  -26.6700   11.9190    5.3100 C   0  0  0  0  0  0  0  0  0  0  0  0
  -28.8080   10.8190    6.6010 C   0  0  0  0  0  0  0  0  0  0  0  0
  -26.4070    6.4790    7.7060 C   0  0  0  0  0  0  0  0  0  0  0  0
  -34.1150    5.9170    5.6900 C   0  0  0  0  0  0  0  0  0  0  0  0
  -32.5840    7.3290    5.8610 O   0  0  0  0  0  0  0  0  0  0  0  0
  -28.9210   12.1380    6.0040 C   0  0  0  0  0  0  0  0  0  0  0  0
  -27.6130   10.0920    6.5150 C   0  0  0  0  0  0  0  0  0  0  0  0
  -26.1050    8.5080    6.7610 C   0  0  0  0  0  0  0  0  0  0  0  0
  -34.0590    5.9770    7.0920 C   0  0  0  0  0  0  0  0  0  0  0  0
  -33.8050    4.5400    7.5440 C   0  0  0  0  0  0  0  0  0  0  0  0
  -32.0280    9.1600    7.3260 C   0  0  0  0  0  0  0  0  0  0  0  0
  -31.1400   11.1960    7.6430 C   0  0  0  0  0  0  0  0  0  0  0  0
  -27.7420    6.7010    8.0090 C   0  0  0  0  0  0  0  0  0  0  0  0
  -27.8150   12.6840    5.3710 C   0  0  0  0  0  0  0  0  0  0  0  0
  -27.4280    8.8290    7.0170 C   0  0  0  0  0  0  0  0  0  0  0  0
  -28.3230    7.9820    7.6550 C   0  0  0  0  0  0  0  0  0  0  0  0
  -25.6390    7.2910    7.0450 C   0  0  0  0  0  0  0  0  0  0  0  0
  -26.5230   10.7490    5.9670 C   0  0  0  0  0  0  0  0  0  0  0  0
  -35.1760    6.3820    7.9640 C   0  0  0  0  0  0  0  0  0  0  0  0
  -24.9860   10.3810    5.8310 O   0  0  0  0  0  0  0  0  0  0  0  0
  -29.9450   10.4760    7.3650 O   0  0  0  0  0  0  0  0  0  0  0  0
  3 14  2  0
  5 15  1  0
  5  1  1  0
  6  4  1  0
  7 20  4  0
  7 24  4  0
  8 27  1  0
  9 19  1  0
 10 15  1  0
 11  5  2  0
 12  8  4  0
 13  8  4  0
 13 21  1  0
 14 21  1  0
 14 23  1  0
 15 16  1  0
 15 25  1  0
 17  2  1  0
 17  1  1  0
 17  6  1  0
 18  6  1  0
 20 12  4  0
 21 22  2  0
 22 19  1  0
 23  9  2  0
 24 13  4  0
 26 24  1  0
 26  3  1  0
 27 18  1  0
M  END
$$$$

     RDKit          3D

 24 26  0  0  0  0  0  0  0  0999 V2000
  -26.6460   10.6960    5.7950 C   0  0  0  0  0  0  0  0  0  0  0  0
  -25.3240   10.1290    5.6520 C   0  0  0  0  0  0  0  0  0  0  0  0
  -33.5130   10.9290    8.1280 O   0  0  0  0  0  0  0  0  0  0  0  0
  -25.6060    7.3420    7.0000 C   0  0  0  0  0  0  0  0  0  0  0  0
  -32.2160   10.2050    8.0740 C   0  0  0  0  0  0  0  0  0  0  0  0
  -32.4650    8.8270    7.4360 C   0  0  0  0  0  0  0  0  0  0  0  0
  -33.6900    8.2250    7.6180 N   0  0  0  0  0  0  0  0  0  0  0  0
  -26.3690    6.4120    7.7020 C   0  0  0  0  0  0  0  0  0  0  0  0
  -28.3010    7.9860    7.6410 C   0  0  0  0  0  0  0  0  0  0  0  0
  -33.8200    6.7330    7.3540 C   0  0  0  0  0  0  0  0  0  0  0  0
  -32.5300    6.0410    7.9720 O   0  0  0  0  0  0  0  0  0  0  0  0
  -26.7110   11.9760    5.3300 C   0  0  0  0  0  0  0  0  0  0  0  0
  -35.1090    6.2640    7.9880 C   0  0  0  0  0  0  0  0  0  0  0  0
  -25.2660    9.2230    6.0010 N   0  0  0  0  0  0  0  0  0  0  0  0
  -28.9250   12.1690    5.9830 C   0  0  0  0  0  0  0  0  0  0  0  0
  -27.7270   10.0950    6.4730 C   0  0  0  0  0  0  0  0  0  0  0  0
  -28.8690   10.8850    6.6370 C   0  0  0  0  0  0  0  0  0  0  0  0
  -26.1330    8.6030    6.6480 C   0  0  0  0  0  0  0  0  0  0  0  0
  -27.4330    8.8400    6.9410 C   0  0  0  0  0  0  0  0  0  0  0  0
  -33.8050    6.4450    5.8680 C   0  0  0  0  0  0  0  0  0  0  0  0
  -29.9480   10.3650    7.3870 O   0  0  0  0  0  0  0  0  0  0  0  0
  -27.7580   12.6490    5.3980 C   0  0  0  0  0  0  0  0  0  0  0  0
  -31.2320   10.8710    7.1650 C   0  0  0  0  0  0  0  0  0  0  0  0
  -27.6840    6.7200    7.9430 C   0  0  0  0  0  0  0  0  0  0  0  0
  1 16  4  0
  2  1  4  0
  2 14  4  0
  4  8  4  0
  5  3  1  0
  6  7  2  3
  6  5  1  0
  8 24  4  0
  9 24  4  0
 10  7  1  0
 10 11  1  0
 10 13  1  0
 12 22  4  0
 12  1  4  0
 14 18  4  0
 15 17  4  0
 16 17  4  0
 16 19  4  0
 17 21  1  0
 18 19  4  0
 18  4  4  0
 19  9  4  0
 20 10  1  0
 22 15  4  0
 23 21  1  0
 23  5  1  0
M  END
$$$$

     RDKit          3D

 21 23  0  0  0  0  0  0  0  0999 V2000
  -27.7280    6.7190    7.9830 C   0  0  0  0  0  0  0  0  0  0  0  0
  -28.9020   10.8750    6.5280 C   0  0  0  0  0  0  0  0  0  0  0  0
  -30.0470   10.2850    7.0600 O   0  0  0  0  0  0  0  0  0  0  0  0
  -26.6440   11.8660    5.2960 C   0  0  0  0  0  0  0  0  0  0  0  0
  -33.4890   10.9230    8.1500 O   0  0  0  0  0  0  0  0  0  0  0  0
  -27.4540    8.8450    6.9990 C   0  0  0  0  0  0  0  0  0  0  0  0
  -27.7550   12.6370    5.3880 C   0  0  0  0  0  0  0  0  0  0  0  0
  -35.0830    6.1990    7.8920 C   0  0  0  0  0  0  0  0  0  0  0  0
  -27.7440   10.0920    6.5030 C   0  0  0  0  0  0  0  0  0  0  0  0
  -26.1100    8.5270    6.6360 C   0  0  0  0  0  0  0  0  0  0  0  0
  -25.5910    9.6160    5.9550 N   0  0  0  0  0  0  0  0  0  0  0  0
  -32.2290   10.2280    8.0010 C   0  0  0  0  0  0  0  0  0  0  0  0
  -28.2600    7.9390    7.6550 C   0  0  0  0  0  0  0  0  0  0  0  0
  -28.9270   12.1240    5.9810 C   0  0  0  0  0  0  0  0  0  0  0  0
  -26.5960   10.5780    5.8750 C   0  0  0  0  0  0  0  0  0  0  0  0
  -31.3060   10.7300    6.8570 C   0  0  0  0  0  0  0  0  0  0  0  0
  -26.3790    6.4130    7.6310 C   0  0  0  0  0  0  0  0  0  0  0  0
  -32.4370    8.8480    7.4120 C   0  0  0  0  0  0  0  0  0  0  0  0
  -33.6730    8.3050    7.5850 N   0  0  0  0  0  0  0  0  0  0  0  0
  -33.7510    6.7390    7.4840 C   0  0  0  0  0  0  0  0  0  0  0  0
  -25.5820    7.3460    7.0010 C   0  0  0  0  0  0  0  0  0  0  0  0
  2  3  1  0
  4  7  4  0
  4 15  4  0
  6 13  1  0
  7 14  4  0
  9  2  4  0
  9  6  2  0
 10  6  1  0
 10 21  2  0
 11 10  1  0
 12  5  1  0
 13  1  1  0
 14  2  4  0
 15 11  2  0
 15  9  4  0
 16  3  1  0
 16 12  1  0
 17  1  2  0
 18 19  1  0
 18 12  1  0
 20 19  1  0
 20  8  1  0
 21 17  1  0
M  END
$$$$

     RDKit          3D

 29 33  0  0  0  0  0  0  0  0999 V2000
  -25.5830    9.5980    5.8930 N   0  0  0  0  0  0  0  0  0  0  0  0
  -35.2210    6.3430    8.0060 C   0  0  0  0  0  0  0  0  0  0  0  0
  -27.4420    8.8630    6.9670 C   0  0  0  0  0  0  0  0  0  0  0  0
  -32.2490   10.2910    8.1300 C   0  0  0  0  0  0  0  0  0  0  0  0
  -33.1380    6.4050    6.3480 C   0  0  0  0  0  0  0  0  0  0  0  0
  -28.8610   12.0930    5.9800 C   0  0  0  0  0  0  0  0  0  0  0  0
  -33.4280    4.9950    6.2330 O   0  0  0  0  0  0  0  0  0  0  0  0
  -26.4020    6.4760    7.7070 C   0  0  0  0  0  0  0  0  0  0  0  0
  -32.7010    8.8250    7.0580 C   0  0  0  0  0  0  0  0  0  0  0  0
  -31.3010   10.9200    7.0280 C   0  0  0  0  0  0  0  0  0  0  0  0
  -33.4620   10.9480    8.1380 O   0  0  0  0  0  0  0  0  0  0  0  0
  -26.5920   11.8970    5.3220 C   0  0  0  0  0  0  0  0  0  0  0  0
  -27.6990   10.0950    6.4380 C   0  0  0  0  0  0  0  0  0  0  0  0
  -29.9210   10.2100    7.2560 C   0  0  0  0  0  0  0  0  0  0  0  0
  -25.6080    7.3420    6.9850 C   0  0  0  0  0  0  0  0  0  0  0  0
  -35.3940    4.8500    7.8900 C   0  0  0  0  0  0  0  0  0  0  0  0
  -28.8660   10.8600    6.5290 C   0  0  0  0  0  0  0  0  0  0  0  0
  -25.8290    5.2110    8.2870 C   0  0  0  0  0  0  0  0  0  0  0  0
  -26.5730   10.6100    5.8610 C   0  0  0  0  0  0  0  0  0  0  0  0
  -33.6840    8.2490    7.6050 N   0  0  0  0  0  0  0  0  0  0  0  0
  -26.1400    8.5790    6.6530 C   0  0  0  0  0  0  0  0  0  0  0  0
  -32.2330    7.6710    6.2770 C   0  0  0  0  0  0  0  0  0  0  0  0
  -28.2870    7.9640    7.7020 C   0  0  0  0  0  0  0  0  0  0  0  0
  -30.9000    9.7260    6.4220 O   0  0  0  0  0  0  0  0  0  0  0  0
  -34.5390    4.3110    6.9360 N   0  0  0  0  0  0  0  0  0  0  0  0
  -27.7220    6.7200    7.9730 C   0  0  0  0  0  0  0  0  0  0  0  0
  -31.2930   11.3780    7.9440 C   0  0  0  0  0  0  0  0  0  0  0  0
  -34.3440    6.8660    7.0200 C   0  0  0  0  0  0  0  0  0  0  0  0
  -27.8050   12.6430    5.3780 C   0  0  0  0  0  0  0  0  0  0  0  0
  1 21  1  0
  3 23  1  0
  4 11  1  0
  5 22  1  0
  5 28  1  0
  6 17  4  0
  7  5  1  0
  7 25  1  0
  8 26  1  0
  8 18  1  0
  9 20  1  0
 10 14  1  0
 10 27  1  0
 12 29  4  0
 12 19  4  0
 13 17  4  0
 13  3  2  0
 14 17  1  0
 15  8  2  0
 16  2  1  0
 19  1  2  0
 19 13  4  0
 21  3  1  0
 21 15  1  0
 22  9  1  0
 23 26  2  0
 24 10  1  0
 24 14  1  0
 25 16  1  0
 27  4  1  0
 28 20  1  0
 28  2  1  0
 29  6  4  0
M  END
$$$$

     RDKit          3D

 27 30  0  0  0  0  0  0  0  0999 V2000
  -26.1290    8.5810    6.6480 C   0  0  0  0  0  0  0  0  0  0  0  0
  -28.9330   12.1370    5.9960 C   0  0  0  0  0  0  0  0  0  0  0  0
  -25.6300    9.6610    5.9880 N   0  0  0  0  0  0  0  0  0  0  0  0
  -33.5160   10.9790    8.1340 O   0  0  0  0  0  0  0  0  0  0  0  0
  -27.7930   12.6210    5.3960 C   0  0  0  0  0  0  0  0  0  0  0  0
  -32.3580    8.8090    7.8800 C   0  0  0  0  0  0  0  0  0  0  0  0
  -31.1910   10.4420    6.3440 C   0  0  0  0  0  0  0  0  0  0  0  0
  -25.6080    7.3880    7.0050 C   0  0  0  0  0  0  0  0  0  0  0  0
  -28.6030    5.7570    8.6660 C   0  0  0  0  0  0  0  0  0  0  0  0
  -26.6430   10.6220    5.9370 C   0  0  0  0  0  0  0  0  0  0  0  0
  -27.6690    6.7570    8.0150 C   0  0  0  0  0  0  0  0  0  0  0  0
  -32.6690    6.0680    8.5940 C   0  0  0  0  0  0  0  0  0  0  0  0
  -31.4120    5.2500    8.5270 C   0  0  0  0  0  0  0  0  0  0  0  0
  -30.0680   10.3040    7.1790 O   0  0  0  0  0  0  0  0  0  0  0  0
  -35.1170    6.3190    7.9820 C   0  0  0  0  0  0  0  0  0  0  0  0
  -30.1130    5.9420    8.9810 O   0  0  0  0  0  0  0  0  0  0  0  0
  -32.2350   10.2100    8.2260 C   0  0  0  0  0  0  0  0  0  0  0  0
  -27.4660    8.8540    6.9670 C   0  0  0  0  0  0  0  0  0  0  0  0
  -27.7550   10.1530    6.5280 C   0  0  0  0  0  0  0  0  0  0  0  0
  -33.6810    8.2330    7.6480 N   0  0  0  0  0  0  0  0  0  0  0  0
  -33.7560    6.6810    7.6060 C   0  0  0  0  0  0  0  0  0  0  0  0
  -26.6070   11.8570    5.3420 C   0  0  0  0  0  0  0  0  0  0  0  0
  -28.9500   10.8870    6.5720 C   0  0  0  0  0  0  0  0  0  0  0  0
  -28.2810    7.9310    7.6220 C   0  0  0  0  0  0  0  0  0  0  0  0
  -26.3550    6.4590    7.6830 C   0  0  0  0  0  0  0  0  0  0  0  0
  -31.2780   10.9270    7.1730 C   0  0  0  0  0  0  0  0  0  0  0  0
  -28.1790    4.6070    8.9340 O   0  0  0  0  0  0  0  0  0  0  0  0
  1 18  4  0
  1  8  4  0
  3  1  2  0
  5  2  2  0
  6 17  1  0
  8 25  4  0
  9 27  2  0
  9 16  1  0
 10  3  1  0
 10 19  1  0
 11  9  1  0
 13 12  1  0
 13 16  1  0
 17  4  1  0
 18 24  4  0
 19 23  1  0
 19 18  2  0
 20  6  2  0
 21 20  1  0
 21 15  1  0
 21 12  1  0
 22  5  1  0
 22 10  2  0
 23  2  1  0
 23 14  1  0
 24 11  4  0
 25 11  4  0
 26  7  1  0
 26 14  1  0
 26 17  1  0
M  END
$$$$

     RDKit          3D

 37 42  0  0  0  0  0  0  0  0999 V2000
  -32.7690    6.1530    8.3860 C   0  0  0  0  0  0  0  0  0  0  0  0
  -27.7950   12.6500    5.3850 C   0  0  0  0  0  0  0  0  0  0  0  0
  -33.6960    8.2370    7.5870 N   0  0  0  0  0  0  0  0  0  0  0  0
  -23.5490    8.0410    5.9150 F   0  0  0  0  0  0  0  0  0  0  0  0
  -27.4510    8.8910    6.9470 C   0  0  0  0  0  0  0  0  0  0  0  0
  -28.8920   12.1370    5.9930 C   0  0  0  0  0  0  0  0  0  0  0  0
  -35.8880    4.9760    9.7810 C   0  0  0  0  0  0  0  0  0  0  0  0
  -26.5150    4.3040    8.6440 F   0  0  0  0  0  0  0  0  0  0  0  0
  -34.3750    3.3920   10.5120 C   0  0  0  0  0  0  0  0  0  0  0  0
  -26.6870   10.5700    5.7900 C   0  0  0  0  0  0  0  0  0  0  0  0
  -32.5200    8.9400    7.1930 C   0  0  0  0  0  0  0  0  0  0  0  0
  -35.1820    6.3500    7.9730 C   0  0  0  0  0  0  0  0  0  0  0  0
  -25.8160    5.2250    8.0950 C   0  0  0  0  0  0  0  0  0  0  0  0
  -27.8090   14.0360    4.9350 C   0  0  0  0  0  0  0  0  0  0  0  0
  -28.9100   10.8720    6.5690 C   0  0  0  0  0  0  0  0  0  0  0  0
  -24.6260    5.0480    8.0180 F   0  0  0  0  0  0  0  0  0  0  0  0
  -35.6240    3.6820   10.1150 O   0  0  0  0  0  0  0  0  0  0  0  0
  -30.0720   10.2690    7.1610 O   0  0  0  0  0  0  0  0  0  0  0  0
  -29.7960    8.5720    7.5180 C   0  0  0  0  0  0  0  0  0  0  0  0
  -33.7420    6.8270    7.5850 C   0  0  0  0  0  0  0  0  0  0  0  0
  -28.2700    7.9660    7.6600 C   0  0  0  0  0  0  0  0  0  0  0  0
  -24.1330    7.1290    6.5530 C   0  0  0  0  0  0  0  0  0  0  0  0
  -31.2160   11.0140    7.3120 C   0  0  0  0  0  0  0  0  0  0  0  0
  -33.1420    4.0240    9.8600 C   0  0  0  0  0  0  0  0  0  0  0  0
  -31.1600    8.1220    7.1810 C   0  0  0  0  0  0  0  0  0  0  0  0
  -25.5920    7.4190    6.9860 C   0  0  0  0  0  0  0  0  0  0  0  0
  -27.7290    6.7820    8.0270 C   0  0  0  0  0  0  0  0  0  0  0  0
  -26.1400    8.6270    6.5990 C   0  0  0  0  0  0  0  0  0  0  0  0
  -26.3470    6.4320    7.6850 C   0  0  0  0  0  0  0  0  0  0  0  0
  -33.4920   10.9430    8.1860 O   0  0  0  0  0  0  0  0  0  0  0  0
  -25.7120    9.6150    5.8970 N   0  0  0  0  0  0  0  0  0  0  0  0
  -27.7630   10.1300    6.5050 C   0  0  0  0  0  0  0  0  0  0  0  0
  -26.5670   11.8820    5.3520 C   0  0  0  0  0  0  0  0  0  0  0  0
  -33.4790    5.0590    8.9570 N   0  0  0  0  0  0  0  0  0  0  0  0
  -27.1770   14.9060    5.8090 N   0  0  0  0  0  0  0  0  0  0  0  0
  -32.2730   10.2250    8.0100 C   0  0  0  0  0  0  0  0  0  0  0  0
  -34.9940    5.4670    8.9420 C   0  0  0  0  0  0  0  0  0  0  0  0
  2  6  4  0
  4 22  1  0
  5 21  1  0
  6 15  4  0
  7 17  1  0
 10 31  2  0
 10 32  4  0
 11  3  1  0
 11 36  1  0
 13  8  1  0
 14  2  1  0
 14 35  1  0
 15 18  1  0
 16 13  1  0
 17  9  1  0
 18 23  1  0
 19 21  1  0
 20  3  1  0
 20 12  1  0
 20  1  1  0
 21 27  2  0
 22 26  1  0
 23 36  1  0
 24  9  1  0
 25 11  1  0
 25 19  2  0
 26 29  2  0
 28 31  1  0
 28  5  1  0
 28 26  1  0
 29 27  1  0
 29 13  1  0
 32 15  4  0
 32  5  2  0
 33  2  4  0
 33 10  4  0
 34  1  1  0
 34 24  1  0
 36 30  1  0
 37 12  1  0
 37 34  1  0
 37  7  1  0
M  END
$$$$

     RDKit          3D

 27 31  0  0  0  0  0  0  0  0999 V2000
  -28.9090   10.8780    6.4090 C   0  0  0  0  0  0  0  0  0  0  0  0
  -33.8140    6.1250    7.9030 C   0  0  0  0  0  0  0  0  0  0  0  0
  -32.6450    8.6080    6.9730 C   0  0  0  0  0  0  0  0  0  0  0  0
  -33.7110    8.3130    7.5850 N   0  0  0  0  0  0  0  0  0  0  0  0
  -31.6010    9.4580    7.5400 C   0  0  0  0  0  0  0  0  0  0  0  0
  -27.7240    6.7150    8.0250 C   0  0  0  0  0  0  0  0  0  0  0  0
  -29.9620   10.4380    6.7560 O   0  0  0  0  0  0  0  0  0  0  0  0
  -26.6060   10.5970    5.9030 C   0  0  0  0  0  0  0  0  0  0  0  0
  -32.8540    6.3270    5.8660 O   0  0  0  0  0  0  0  0  0  0  0  0
  -25.6320    9.6130    5.9960 N   0  0  0  0  0  0  0  0  0  0  0  0
  -27.7580   10.1070    6.4670 C   0  0  0  0  0  0  0  0  0  0  0  0
  -33.3790    6.7430    6.7100 C   0  0  0  0  0  0  0  0  0  0  0  0
  -27.7260   12.5900    5.3960 C   0  0  0  0  0  0  0  0  0  0  0  0
  -29.6450    8.2670    7.7200 C   0  0  0  0  0  0  0  0  0  0  0  0
  -27.4180    8.8880    6.9610 C   0  0  0  0  0  0  0  0  0  0  0  0
  -30.1610    9.4220    7.1780 C   0  0  0  0  0  0  0  0  0  0  0  0
  -30.5680    7.4660    7.7910 N   0  0  0  0  0  0  0  0  0  0  0  0
  -25.6000    7.3880    6.9750 C   0  0  0  0  0  0  0  0  0  0  0  0
  -28.2820    7.9620    7.6490 C   0  0  0  0  0  0  0  0  0  0  0  0
  -26.1130    8.5880    6.6360 C   0  0  0  0  0  0  0  0  0  0  0  0
  -28.8970   12.1460    5.9760 C   0  0  0  0  0  0  0  0  0  0  0  0
  -32.0080   10.7340    8.1220 C   0  0  0  0  0  0  0  0  0  0  0  0
  -34.5290    4.9360    8.0860 C   0  0  0  0  0  0  0  0  0  0  0  0
  -35.1620    6.4150    8.0040 C   0  0  0  0  0  0  0  0  0  0  0  0
  -26.4010    6.4500    7.6980 C   0  0  0  0  0  0  0  0  0  0  0  0
  -26.5900   11.8880    5.3640 C   0  0  0  0  0  0  0  0  0  0  0  0
  -33.4600   10.9280    8.1280 O   0  0  0  0  0  0  0  0  0  0  0  0
  1 11  1  0
  1  7  1  0
  2 24  1  0
  2 23  1  0
  3  4  1  0
  5  3  1  0
  5 22  1  0
  7 16  1  0
  8 10  2  0
  9 12  2  0
 10 20  1  0
 11  8  1  0
 11 15  1  0
 12  4  1  0
 12  2  1  0
 13 21  1  0
 14 17  1  0
 15 19  4  0
 16  5  1  0
 16 14  2  0
 18 25  4  0
 19 14  1  0
 19  6  4  0
 20 15  4  0
 20 18  4  0
 21  1  2  0
 22 27  1  0
 24 23  1  0
 25  6  4  0
 26 13  2  0
 26  8  1  0
M  END
$$$$

     RDKit          3D

 24 26  0  0  0  0  0  0  0  0999 V2000
  -25.6470    9.6460    5.9430 N   0  0  0  0  0  0  0  0  0  0  0  0
  -33.7420    6.3740    5.9290 C   0  0  0  0  0  0  0  0  0  0  0  0
  -33.7530    8.2270    7.5980 N   0  0  0  0  0  0  0  0  0  0  0  0
  -31.2130   11.0990    7.3140 C   0  0  0  0  0  0  0  0  0  0  0  0
  -35.2040    6.2860    7.9840 C   0  0  0  0  0  0  0  0  0  0  0  0
  -25.5520    7.3300    7.0200 C   0  0  0  0  0  0  0  0  0  0  0  0
  -28.8980   12.1000    6.0170 C   0  0  0  0  0  0  0  0  0  0  0  0
  -26.6260   11.8730    5.2720 C   0  0  0  0  0  0  0  0  0  0  0  0
  -27.7850   12.6090    5.3860 C   0  0  0  0  0  0  0  0  0  0  0  0
  -27.7260    6.7130    7.9950 C   0  0  0  0  0  0  0  0  0  0  0  0
  -27.4860    8.8070    6.9610 C   0  0  0  0  0  0  0  0  0  0  0  0
  -28.2270    7.9250    7.6820 C   0  0  0  0  0  0  0  0  0  0  0  0
  -29.9690   10.4010    7.2950 O   0  0  0  0  0  0  0  0  0  0  0  0
  -33.8530    6.7470    7.4110 C   0  0  0  0  0  0  0  0  0  0  0  0
  -26.3710    6.4330    7.6640 C   0  0  0  0  0  0  0  0  0  0  0  0
  -31.4070    8.3420    6.7420 C   0  0  0  0  0  0  0  0  0  0  0  0
  -28.8790   10.8600    6.5890 C   0  0  0  0  0  0  0  0  0  0  0  0
  -26.5640   10.5760    5.8800 C   0  0  0  0  0  0  0  0  0  0  0  0
  -32.5040    8.9250    7.4280 C   0  0  0  0  0  0  0  0  0  0  0  0
  -27.6900   10.1190    6.4650 C   0  0  0  0  0  0  0  0  0  0  0  0
  -33.4820   10.9200    8.2120 O   0  0  0  0  0  0  0  0  0  0  0  0
  -32.2280   10.2310    8.1410 C   0  0  0  0  0  0  0  0  0  0  0  0
  -26.0830    8.5710    6.6570 C   0  0  0  0  0  0  0  0  0  0  0  0
  -32.7190    5.9920    8.2100 C   0  0  0  0  0  0  0  0  0  0  0  0
  1 23  1  0
  2 14  1  0
  4 22  1  0
  6 15  2  0
  7 17  4  0
  8  9  4  0
  8 18  4  0
  9  7  4  0
 11 12  1  0
 12 10  2  0
 13  4  1  0
 14  3  1  0
 14  5  1  0
 14 24  1  0
 15 10  1  0
 17 13  1  0
 18  1  2  0
 18 20  4  0
 19 16  1  0
 19  3  1  0
 19 22  1  0
 20 17  4  0
 20 11  2  0
 22 21  1  0
 23 11  1  0
 23  6  1  0
M  END
$$$$

     RDKit          3D

 21 22  0  0  0  0  0  0  0  0999 V2000
  -25.5620    7.3910    6.9880 C   0  0  0  0  0  0  0  0  0  0  0  0
  -32.2410   10.2380    8.0690 C   0  0  0  0  0  0  0  0  0  0  0  0
  -27.7680   12.6630    5.3830 C   0  0  0  0  0  0  0  0  0  0  0  0
  -27.8360   10.1650    6.5110 C   0  0  0  0  0  0  0  0  0  0  0  0
  -27.4450    8.8660    7.0310 C   0  0  0  0  0  0  0  0  0  0  0  0
  -26.5890   11.8480    5.3270 C   0  0  0  0  0  0  0  0  0  0  0  0
  -33.7000    8.2280    7.6340 N   0  0  0  0  0  0  0  0  0  0  0  0
  -28.9090   12.1610    6.0280 C   0  0  0  0  0  0  0  0  0  0  0  0
  -25.6460    9.6810    5.9930 N   0  0  0  0  0  0  0  0  0  0  0  0
  -26.1740    8.6330    6.6580 C   0  0  0  0  0  0  0  0  0  0  0  0
  -31.6030    8.6710    6.4200 C   0  0  0  0  0  0  0  0  0  0  0  0
  -26.3160    6.4170    7.6460 C   0  0  0  0  0  0  0  0  0  0  0  0
  -33.5290   10.9350    8.1650 O   0  0  0  0  0  0  0  0  0  0  0  0
  -27.6810    6.6990    7.9760 C   0  0  0  0  0  0  0  0  0  0  0  0
  -30.6800    9.8130    6.5370 O   0  0  0  0  0  0  0  0  0  0  0  0
  -35.0740    6.1790    7.9430 C   0  0  0  0  0  0  0  0  0  0  0  0
  -32.3750    8.7880    7.7040 C   0  0  0  0  0  0  0  0  0  0  0  0
  -31.3690   10.8960    7.1080 C   0  0  0  0  0  0  0  0  0  0  0  0
  -26.5800   10.5920    5.8750 C   0  0  0  0  0  0  0  0  0  0  0  0
  -28.2730    7.9740    7.6470 C   0  0  0  0  0  0  0  0  0  0  0  0
  -33.9550    6.8480    7.0710 C   0  0  0  0  0  0  0  0  0  0  0  0
  1 12  1  0
  2 13  1  0
  3  8  1  0
  4  5  2  0
  5 20  1  0
  6  3  2  3
  6 19  1  0
  9 10  1  0
 10  1  2  0
 10  5  1  0
 11 15  1  0
 11 17  1  0
 12 14  1  0
 15 18  1  0
 17  7  1  0
 17  2  1  0
 18  2  1  0
 19  9  2  0
 19  4  1  0
 20 14  2  0
 21  7  1  0
 21 16  1  0
M  END
$$$$

     RDKit          3D

 29 33  0  0  0  0  0  0  0  0999 V2000
  -32.5430    8.5380    7.0950 C   0  0  0  0  0  0  0  0  0  0  0  0
  -28.9120   12.1260    5.9790 C   0  0  0  0  0  0  0  0  0  0  0  0
  -27.7340   10.1020    6.5140 C   0  0  0  0  0  0  0  0  0  0  0  0
  -31.1870   11.1610    7.3490 C   0  0  0  0  0  0  0  0  0  0  0  0
  -25.5540    7.3270    7.0070 C   0  0  0  0  0  0  0  0  0  0  0  0
  -31.9720    5.4250    9.1700 O   0  0  0  0  0  0  0  0  0  0  0  0
  -33.7040    8.2320    7.6180 N   0  0  0  0  0  0  0  0  0  0  0  0
  -35.1440    6.2130    7.9960 C   0  0  0  0  0  0  0  0  0  0  0  0
  -31.4710    9.1130    6.3920 O   0  0  0  0  0  0  0  0  0  0  0  0
  -26.1350    8.5880    6.6450 C   0  0  0  0  0  0  0  0  0  0  0  0
  -33.4740   10.9270    8.2300 O   0  0  0  0  0  0  0  0  0  0  0  0
  -28.3200    7.9580    7.6540 C   0  0  0  0  0  0  0  0  0  0  0  0
  -34.0720    7.0400    7.1610 C   0  0  0  0  0  0  0  0  0  0  0  0
  -31.6520    9.3200    7.8180 C   0  0  0  0  0  0  0  0  0  0  0  0
  -27.4760    8.8470    6.9920 C   0  0  0  0  0  0  0  0  0  0  0  0
  -34.3030    5.1210    8.5760 C   0  0  0  0  0  0  0  0  0  0  0  0
  -29.9140   10.4520    7.4400 O   0  0  0  0  0  0  0  0  0  0  0  0
  -33.1250    4.6700    9.5900 C   0  0  0  0  0  0  0  0  0  0  0  0
  -33.1590    6.2110    6.5850 O   0  0  0  0  0  0  0  0  0  0  0  0
  -26.3510    6.4290    7.7010 C   0  0  0  0  0  0  0  0  0  0  0  0
  -32.0440   10.7910    8.1270 C   0  0  0  0  0  0  0  0  0  0  0  0
  -32.9960    4.0080   10.6310 O   0  0  0  0  0  0  0  0  0  0  0  0
  -25.5770    9.6050    6.0050 N   0  0  0  0  0  0  0  0  0  0  0  0
  -26.6310   11.8840    5.3130 C   0  0  0  0  0  0  0  0  0  0  0  0
  -33.5830    5.0430    7.2520 O   0  0  0  0  0  0  0  0  0  0  0  0
  -26.5520   10.5820    5.8880 C   0  0  0  0  0  0  0  0  0  0  0  0
  -27.7060    6.7130    8.0210 C   0  0  0  0  0  0  0  0  0  0  0  0
  -28.8780   10.8830    6.5890 C   0  0  0  0  0  0  0  0  0  0  0  0
  -27.7480   12.6330    5.3790 C   0  0  0  0  0  0  0  0  0  0  0  0
  1  7  1  0
  1 14  1  0
  2 28  1  0
  3 28  1  0
  3 15  2  0
  4 17  1  0
  4 21  1  0
  5 20  4  0
  6 18  2  0
  8 16  1  0
  9  1  1  0
  9 14  1  0
 10 15  4  0
 10  5  4  0
 12 27  4  0
 13  7  1  0
 13  8  1  0
 14 21  1  0
 15 12  4  0
 16 18  1  0
 18 22  1  0
 19 13  1  0
 19 25  1  0
 20 27  4  0
 21 11  1  0
 23 10  2  0
 24 29  1  0
 24 26  2  0
 25 16  1  0
 26 23  1  0
 26  3  1  0
 28 17  1  0
 29  2  2  0
M  END
$$$$

     RDKit          3D

 27 32  0  0  0  0  0  0  0  0999 V2000
  -33.5080   10.9640    8.1930 O   0  0  0  0  0  0  0  0  0  0  0  0
  -34.2290    5.3010    7.3960 C   0  0  0  0  0  0  0  0  0  0  0  0
  -26.3870    6.4280    7.6860 C   0  0  0  0  0  0  0  0  0  0  0  0
  -28.9140   12.1430    6.0190 C   0  0  0  0  0  0  0  0  0  0  0  0
  -25.6380    7.3450    7.0200 C   0  0  0  0  0  0  0  0  0  0  0  0
  -28.2810    7.8910    7.6660 C   0  0  0  0  0  0  0  0  0  0  0  0
  -25.6020    9.5780    5.9550 N   0  0  0  0  0  0  0  0  0  0  0  0
  -33.7940    6.8100    7.3280 C   0  0  0  0  0  0  0  0  0  0  0  0
  -28.9530   10.8490    6.5340 C   0  0  0  0  0  0  0  0  0  0  0  0
  -27.7920   12.6580    5.3690 C   0  0  0  0  0  0  0  0  0  0  0  0
  -32.2490   10.2900    8.0730 C   0  0  0  0  0  0  0  0  0  0  0  0
  -36.1220    5.4860    8.8670 C   0  0  0  0  0  0  0  0  0  0  0  0
  -26.6040   11.8990    5.3480 C   0  0  0  0  0  0  0  0  0  0  0  0
  -26.1600    8.5730    6.5760 C   0  0  0  0  0  0  0  0  0  0  0  0
  -31.9030    8.0930    6.3080 C   0  0  0  0  0  0  0  0  0  0  0  0
  -35.2020    6.3530    7.9930 C   0  0  0  0  0  0  0  0  0  0  0  0
  -27.7790   10.1390    6.5090 C   0  0  0  0  0  0  0  0  0  0  0  0
  -35.2890    4.5200    9.4170 O   0  0  0  0  0  0  0  0  0  0  0  0
  -32.3730    8.8420    7.5000 C   0  0  0  0  0  0  0  0  0  0  0  0
  -27.5290    8.8050    6.9210 C   0  0  0  0  0  0  0  0  0  0  0  0
  -34.1070    4.3570    8.5110 C   0  0  0  0  0  0  0  0  0  0  0  0
  -26.5930   10.6480    5.8840 C   0  0  0  0  0  0  0  0  0  0  0  0
  -30.0850   10.3830    7.0780 O   0  0  0  0  0  0  0  0  0  0  0  0
  -33.7040    8.2410    7.5950 N   0  0  0  0  0  0  0  0  0  0  0  0
  -27.7040    6.6860    8.0010 C   0  0  0  0  0  0  0  0  0  0  0  0
  -31.3280   11.0090    7.1270 C   0  0  0  0  0  0  0  0  0  0  0  0
  -32.9560    6.9890    5.9770 C   0  0  0  0  0  0  0  0  0  0  0  0
  2 16  1  0
  2 21  1  0
  3 25  4  0
  4  9  1  0
  5  3  4  0
  6 25  4  0
  7 14  2  0
  8 27  1  0
  8  2  1  0
  8 24  1  0
  8 16  1  0
  9 23  1  0
 10  4  2  0
 11  1  1  0
 12 18  1  0
 13 10  1  0
 13 22  2  0
 14 20  4  0
 14  5  4  0
 15 19  1  0
 16 12  1  0
 17  9  1  0
 17 20  2  0
 19 24  1  0
 19 11  1  0
 20  6  4  0
 21 18  1  0
 22  7  1  0
 22 17  1  0
 23 26  1  0
 26 11  1  0
 27 15  1  0
M  END
$$$$

     RDKit          3D

 37 41  0  0  0  0  0  0  0  0999 V2000
  -35.1980    6.3270    8.0710 C   0  0  0  0  0  0  0  0  0  0  0  0
  -28.8390   10.7610    6.5600 C   0  0  0  0  0  0  0  0  0  0  0  0
  -33.0040    7.2140    5.6600 C   0  0  0  0  0  0  0  0  0  0  0  0
  -34.0660    6.0290    7.3400 C   0  0  0  0  0  0  0  0  0  0  0  0
  -25.7020    5.2200    8.0170 C   0  0  0  0  0  0  0  0  0  0  0  0
  -25.5910    7.3900    6.9560 C   0  0  0  0  0  0  0  0  0  0  0  0
  -32.4900    8.8530    7.9720 C   0  0  0  0  0  0  0  0  0  0  0  0
  -28.8730   12.1450    5.9840 C   0  0  0  0  0  0  0  0  0  0  0  0
  -33.9370    4.9890    9.4910 C   0  0  0  0  0  0  0  0  0  0  0  0
  -27.7730   12.6430    5.3490 C   0  0  0  0  0  0  0  0  0  0  0  0
  -37.1820    4.0220   10.8380 C   0  0  0  0  0  0  0  0  0  0  0  0
  -31.6640    9.5840    7.0040 C   0  0  0  0  0  0  0  0  0  0  0  0
  -26.6040   10.6020    5.9280 C   0  0  0  0  0  0  0  0  0  0  0  0
  -25.0530    5.3780    9.0900 F   0  0  0  0  0  0  0  0  0  0  0  0
  -35.3530    4.8870    8.4380 C   0  0  0  0  0  0  0  0  0  0  0  0
  -33.7340    8.3020    7.6090 N   0  0  0  0  0  0  0  0  0  0  0  0
  -35.9440    3.7720   10.0780 N   0  0  0  0  0  0  0  0  0  0  0  0
  -28.2610    7.9400    7.6330 C   0  0  0  0  0  0  0  0  0  0  0  0
  -27.7140   14.0380    4.7390 C   0  0  0  0  0  0  0  0  0  0  0  0
  -25.6220    9.6960    6.0240 N   0  0  0  0  0  0  0  0  0  0  0  0
  -31.8630    6.8340    7.8730 C   0  0  0  0  0  0  0  0  0  0  0  0
  -25.3710   12.2160    4.6370 C   0  0  0  0  0  0  0  0  0  0  0  0
  -24.8570    5.0250    7.0660 F   0  0  0  0  0  0  0  0  0  0  0  0
  -35.3180    4.8920    9.8000 N   0  0  0  0  0  0  0  0  0  0  0  0
  -33.0480    7.1460    7.2090 C   0  0  0  0  0  0  0  0  0  0  0  0
  -27.6980    6.7450    7.9950 C   0  0  0  0  0  0  0  0  0  0  0  0
  -26.5320    4.2150    8.1850 F   0  0  0  0  0  0  0  0  0  0  0  0
  -29.4980    8.8320    7.4970 C   0  0  0  0  0  0  0  0  0  0  0  0
  -33.4730   10.9630    8.1750 O   0  0  0  0  0  0  0  0  0  0  0  0
  -26.4060    6.4900    7.6730 C   0  0  0  0  0  0  0  0  0  0  0  0
  -26.5740   11.8920    5.2950 C   0  0  0  0  0  0  0  0  0  0  0  0
  -30.6350    8.5780    6.7220 O   0  0  0  0  0  0  0  0  0  0  0  0
  -26.1320    8.6080    6.6580 C   0  0  0  0  0  0  0  0  0  0  0  0
  -27.7410   10.0830    6.5000 C   0  0  0  0  0  0  0  0  0  0  0  0
  -32.1480   11.0150    7.7000 C   0  0  0  0  0  0  0  0  0  0  0  0
  -29.7960   10.4970    7.3000 O   0  0  0  0  0  0  0  0  0  0  0  0
  -27.5270    8.8770    7.0150 C   0  0  0  0  0  0  0  0  0  0  0  0
  2 36  1  0
  3 25  1  0
  4  1  1  0
  5 27  1  0
  5 14  1  0
  6 30  1  0
  8  2  4  0
  9 24  1  0
 10  8  4  0
 12 35  1  0
 12  7  1  0
 13 20  2  0
 13 34  4  0
 15  1  1  0
 15  9  1  0
 15 24  1  0
 16  7  1  0
 17 11  1  0
 18 26  2  0
 19 10  1  0
 20 33  1  0
 22 31  1  0
 23  5  1  0
 24 17  1  0
 25  4  1  0
 25 16  1  0
 25 21  1  0
 28 32  1  0
 28 18  1  0
 30 26  1  0
 30  5  1  0
 31 10  4  0
 31 13  4  0
 32 12  1  0
 33  6  2  0
 33 37  1  0
 34  2  4  0
 34 37  2  0
 35 29  1  0
 36 28  1  0
 37 18  1  0
M  END
$$$$

     RDKit          3D

 27 30  0  0  0  0  0  0  0  0999 V2000
  -27.7350   12.6630    5.4010 C   0  0  0  0  0  0  0  0  0  0  0  0
  -27.7270    6.7390    8.0110 C   0  0  0  0  0  0  0  0  0  0  0  0
  -26.3960    6.4220    7.7220 C   0  0  0  0  0  0  0  0  0  0  0  0
  -34.3190    7.1110    7.0080 C   0  0  0  0  0  0  0  0  0  0  0  0
  -35.1900    6.3510    8.0480 C   0  0  0  0  0  0  0  0  0  0  0  0
  -28.8390   10.8600    6.5700 C   0  0  0  0  0  0  0  0  0  0  0  0
  -27.3390    8.8300    6.9280 C   0  0  0  0  0  0  0  0  0  0  0  0
  -33.4530   10.9370    8.1750 O   0  0  0  0  0  0  0  0  0  0  0  0
  -26.4610   10.7200    5.8050 C   0  0  0  0  0  0  0  0  0  0  0  0
  -27.6130   10.1310    6.4150 C   0  0  0  0  0  0  0  0  0  0  0  0
  -26.6870   11.9120    5.3660 C   0  0  0  0  0  0  0  0  0  0  0  0
  -32.4890    8.9060    7.4740 C   0  0  0  0  0  0  0  0  0  0  0  0
  -25.6200    7.3180    7.0100 C   0  0  0  0  0  0  0  0  0  0  0  0
  -32.1670   10.2220    8.1030 C   0  0  0  0  0  0  0  0  0  0  0  0
  -33.8380    5.7680    7.4560 C   0  0  0  0  0  0  0  0  0  0  0  0
  -29.9740   10.2600    7.2550 O   0  0  0  0  0  0  0  0  0  0  0  0
  -31.5470    8.3800    6.6020 C   0  0  0  0  0  0  0  0  0  0  0  0
  -31.1930   11.0160    7.4430 C   0  0  0  0  0  0  0  0  0  0  0  0
  -25.0270    9.2200    6.1320 C   0  0  0  0  0  0  0  0  0  0  0  0
  -25.1640   10.3190    5.6620 N   0  0  0  0  0  0  0  0  0  0  0  0
  -30.3530    9.2090    6.4320 C   0  0  0  0  0  0  0  0  0  0  0  0
  -28.9380   12.1310    6.0010 C   0  0  0  0  0  0  0  0  0  0  0  0
  -33.9330    4.9350    6.4620 F   0  0  0  0  0  0  0  0  0  0  0  0
  -25.9880    8.5080    6.6430 C   0  0  0  0  0  0  0  0  0  0  0  0
  -33.6740    8.2510    7.6340 N   0  0  0  0  0  0  0  0  0  0  0  0
  -31.8290    7.3700    5.7780 O   0  0  0  0  0  0  0  0  0  0  0  0
  -28.2550    7.9680    7.6140 C   0  0  0  0  0  0  0  0  0  0  0  0
  1 22  4  0
  3  2  4  0
  4 15  1  0
  4 25  1  0
  4  5  1  0
  7 27  4  0
  9 10  4  0
 10  6  4  0
 10  7  4  0
 11  1  4  0
 11  9  4  0
 12 25  1  0
 12 14  1  0
 13  3  4  0
 14  8  1  0
 15 23  1  0
 15  5  1  0
 16 18  1  0
 17 12  2  0
 18 14  1  0
 19 24  4  0
 20  9  4  0
 20 19  4  0
 21 17  1  0
 21 16  1  0
 22  6  4  0
 24  7  4  0
 24 13  4  0
 26 17  1  0
 27  2  4  0
M  END
$$$$

     RDKit          3D

 24 27  0  0  0  0  0  0  0  0999 V2000
  -30.1590   10.3730    7.0090 C   0  0  0  0  0  0  0  0  0  0  0  0
  -35.0390    6.1960    7.7990 C   0  0  0  0  0  0  0  0  0  0  0  0
  -27.4590    8.8630    6.9210 C   0  0  0  0  0  0  0  0  0  0  0  0
  -32.2630   10.1910    8.2600 C   0  0  0  0  0  0  0  0  0  0  0  0
  -26.1690    8.5980    6.6430 C   0  0  0  0  0  0  0  0  0  0  0  0
  -33.4830   10.8940    8.1950 O   0  0  0  0  0  0  0  0  0  0  0  0
  -27.7580    4.4710    8.8780 N   0  0  0  0  0  0  0  0  0  0  0  0
  -28.9600   10.8640    6.5490 C   0  0  0  0  0  0  0  0  0  0  0  0
  -32.3080    9.1700    7.1970 C   0  0  0  0  0  0  0  0  0  0  0  0
  -27.6720    6.7320    7.9580 C   0  0  0  0  0  0  0  0  0  0  0  0
  -28.5210    5.7170    8.7470 C   0  0  0  0  0  0  0  0  0  0  0  0
  -28.8330   12.1470    5.9960 C   0  0  0  0  0  0  0  0  0  0  0  0
  -25.6000    7.3610    6.9550 C   0  0  0  0  0  0  0  0  0  0  0  0
  -25.5740    9.6430    5.9610 O   0  0  0  0  0  0  0  0  0  0  0  0
  -27.7670   10.1240    6.5070 C   0  0  0  0  0  0  0  0  0  0  0  0
  -31.1480    9.7580    6.3870 O   0  0  0  0  0  0  0  0  0  0  0  0
  -26.3750    6.4290    7.6750 C   0  0  0  0  0  0  0  0  0  0  0  0
  -26.6210   11.8730    5.3520 C   0  0  0  0  0  0  0  0  0  0  0  0
  -33.7100    8.2930    7.6130 N   0  0  0  0  0  0  0  0  0  0  0  0
  -26.6010   10.6530    5.8690 C   0  0  0  0  0  0  0  0  0  0  0  0
  -27.7630   12.7050    5.3740 C   0  0  0  0  0  0  0  0  0  0  0  0
  -33.7170    6.8530    7.3120 C   0  0  0  0  0  0  0  0  0  0  0  0
  -28.2810    7.9870    7.6870 C   0  0  0  0  0  0  0  0  0  0  0  0
  -31.1450   11.1170    7.7670 C   0  0  0  0  0  0  0  0  0  0  0  0
  1  8  1  0
  1 24  1  0
  3 23  4  0
  4  6  1  0
  5  3  4  0
  5 13  4  0
  9 19  1  0
  9  4  1  0
 10 11  1  0
 11  7  1  0
 12  8  4  0
 13 17  4  0
 14  5  4  0
 15  8  4  0
 15  3  4  0
 16  1  1  0
 16  9  1  0
 17 10  4  0
 18 21  4  0
 18 20  4  0
 20 14  4  0
 20 15  4  0
 21 12  4  0
 22 19  1  0
 22  2  1  0
 23 10  4  0
 24  4  1  0
M  END
$$$$

     RDKit          3D

 21 23  0  0  0  0  0  0  0  0999 V2000
  -33.6850    8.2590    7.6220 N   0  0  0  0  0  0  0  0  0  0  0  0
  -33.7870    6.8070    7.3860 C   0  0  0  0  0  0  0  0  0  0  0  0
  -32.4790    8.9070    7.2680 C   0  0  0  0  0  0  0  0  0  0  0  0
  -26.5800   11.8800    5.3670 C   0  0  0  0  0  0  0  0  0  0  0  0
  -31.3090   11.1660    7.2150 C   0  0  0  0  0  0  0  0  0  0  0  0
  -30.1000   10.3900    7.1010 O   0  0  0  0  0  0  0  0  0  0  0  0
  -25.5620    9.6130    5.9570 N   0  0  0  0  0  0  0  0  0  0  0  0
  -27.7730   12.5970    5.4040 C   0  0  0  0  0  0  0  0  0  0  0  0
  -32.2440   10.2040    7.9920 C   0  0  0  0  0  0  0  0  0  0  0  0
  -28.8930   12.1650    6.0050 C   0  0  0  0  0  0  0  0  0  0  0  0
  -25.5950    7.3270    7.0300 C   0  0  0  0  0  0  0  0  0  0  0  0
  -27.7300    6.7320    8.0420 C   0  0  0  0  0  0  0  0  0  0  0  0
  -33.5000   10.9050    8.1500 O   0  0  0  0  0  0  0  0  0  0  0  0
  -28.9400   10.8990    6.5310 C   0  0  0  0  0  0  0  0  0  0  0  0
  -26.3990    6.4500    7.6770 C   0  0  0  0  0  0  0  0  0  0  0  0
  -26.6000   10.5920    5.9250 C   0  0  0  0  0  0  0  0  0  0  0  0
  -28.2610    7.9290    7.6600 C   0  0  0  0  0  0  0  0  0  0  0  0
  -35.1060    6.2310    7.9230 C   0  0  0  0  0  0  0  0  0  0  0  0
  -26.1230    8.5650    6.6680 C   0  0  0  0  0  0  0  0  0  0  0  0
  -27.7760   10.1240    6.5450 C   0  0  0  0  0  0  0  0  0  0  0  0
  -27.4820    8.8970    6.9930 C   0  0  0  0  0  0  0  0  0  0  0  0
  2  1  1  0
  2 18  1  0
  3  1  1  0
  3  9  1  0
  4  8  4  0
  4 16  4  0
  5  9  1  0
  6  5  1  0
  7 19  1  0
  8 10  4  0
  9 13  1  0
 10 14  4  0
 11 15  2  0
 14 20  4  0
 14  6  1  0
 15 12  1  0
 16  7  2  0
 16 20  4  0
 17 12  2  0
 19 21  1  0
 19 11  1  0
 20 21  2  0
 21 17  1  0
M  END
$$$$

     RDKit          3D

 29 32  0  0  0  0  0  0  0  0999 V2000
  -28.2080    7.9570    7.6810 C   0  0  0  0  0  0  0  0  0  0  0  0
  -33.6430    6.8060    8.0510 C   0  0  0  0  0  0  0  0  0  0  0  0
  -29.9400   10.3280    7.4090 O   0  0  0  0  0  0  0  0  0  0  0  0
  -33.7460    8.2410    7.5890 N   0  0  0  0  0  0  0  0  0  0  0  0
  -26.6330   11.8980    5.3370 C   0  0  0  0  0  0  0  0  0  0  0  0
  -25.1250    9.2380    5.9700 C   0  0  0  0  0  0  0  0  0  0  0  0
  -26.5960   10.6680    5.8090 C   0  0  0  0  0  0  0  0  0  0  0  0
  -33.4860   10.9370    8.1770 O   0  0  0  0  0  0  0  0  0  0  0  0
  -35.1680    6.3450    7.9890 C   0  0  0  0  0  0  0  0  0  0  0  0
  -27.7740   12.6350    5.3980 C   0  0  0  0  0  0  0  0  0  0  0  0
  -33.8740    6.0010    5.8390 F   0  0  0  0  0  0  0  0  0  0  0  0
  -27.3750    8.8110    6.9700 C   0  0  0  0  0  0  0  0  0  0  0  0
  -28.9140   10.8670    6.5430 C   0  0  0  0  0  0  0  0  0  0  0  0
  -32.2460   10.1660    8.1280 C   0  0  0  0  0  0  0  0  0  0  0  0
  -34.0430    5.7630    7.1740 C   0  0  0  0  0  0  0  0  0  0  0  0
  -28.9050   12.1150    6.0070 C   0  0  0  0  0  0  0  0  0  0  0  0
  -31.4960    7.9550    6.8960 C   0  0  0  0  0  0  0  0  0  0  0  0
  -31.4700   11.7540    6.5170 O   0  0  0  0  0  0  0  0  0  0  0  0
  -26.4150    6.4490    7.7210 C   0  0  0  0  0  0  0  0  0  0  0  0
  -25.6660    7.2920    7.0010 C   0  0  0  0  0  0  0  0  0  0  0  0
  -32.4920    8.9500    7.2660 C   0  0  0  0  0  0  0  0  0  0  0  0
  -33.5600    4.5850    7.4620 F   0  0  0  0  0  0  0  0  0  0  0  0
  -25.3370   10.1800    5.4140 N   0  0  0  0  0  0  0  0  0  0  0  0
  -27.7100   10.0630    6.4600 C   0  0  0  0  0  0  0  0  0  0  0  0
  -27.7000    6.7500    8.0000 C   0  0  0  0  0  0  0  0  0  0  0  0
  -26.0760    8.5070    6.6730 C   0  0  0  0  0  0  0  0  0  0  0  0
  -25.7910    5.3610    8.3460 C   0  0  0  0  0  0  0  0  0  0  0  0
  -31.0950   11.0410    7.7020 C   0  0  0  0  0  0  0  0  0  0  0  0
  -31.6950    7.2500    5.6790 O   0  0  0  0  0  0  0  0  0  0  0  0
  1 25  4  0
  2  4  1  0
  3 28  1  0
  5 10  4  0
  5  7  4  0
  6 26  4  0
  7 24  4  0
  9  2  1  0
 10 16  4  0
 11 15  1  0
 12  1  4  0
 13  3  1  0
 14  8  1  0
 15 22  1  0
 15  9  1  0
 15  2  1  0
 16 13  4  0
 19 25  4  0
 19 27  1  0
 20 19  4  0
 21 17  1  0
 21  4  1  0
 21 14  1  0
 23  7  4  0
 23  6  4  0
 24 13  4  0
 24 12  4  0
 26 12  4  0
 26 20  4  0
 28 18  1  0
 28 14  1  0
 29 17  1  0
M  END
$$$$

     RDKit          3D

 27 30  0  0  0  0  0  0  0  0999 V2000
  -32.7180    6.1230    8.1090 C   0  0  0  0  0  0  0  0  0  0  0  0
  -32.2250   10.2950    8.1940 C   0  0  0  0  0  0  0  0  0  0  0  0
  -27.7970   10.1830    6.4930 C   0  0  0  0  0  0  0  0  0  0  0  0
  -26.6210   10.6410    5.8280 C   0  0  0  0  0  0  0  0  0  0  0  0
  -25.5310    7.4240    6.9830 C   0  0  0  0  0  0  0  0  0  0  0  0
  -35.2530    5.3670    9.2100 C   0  0  0  0  0  0  0  0  0  0  0  0
  -27.5180    8.8760    6.9320 C   0  0  0  0  0  0  0  0  0  0  0  0
  -30.4200    9.0080    7.0710 C   0  0  0  0  0  0  0  0  0  0  0  0
  -33.7580    6.4150    5.8540 C   0  0  0  0  0  0  0  0  0  0  0  0
  -27.7530   12.6930    5.3800 C   0  0  0  0  0  0  0  0  0  0  0  0
  -30.2190   10.4490    6.9970 N   0  0  0  0  0  0  0  0  0  0  0  0
  -31.2410   11.2160    7.3720 C   0  0  0  0  0  0  0  0  0  0  0  0
  -33.8380    6.8070    7.3260 C   0  0  0  0  0  0  0  0  0  0  0  0
  -28.9600   10.8470    6.4300 C   0  0  0  0  0  0  0  0  0  0  0  0
  -31.2780    8.4240    7.8460 O   0  0  0  0  0  0  0  0  0  0  0  0
  -33.6960    8.2650    7.6030 N   0  0  0  0  0  0  0  0  0  0  0  0
  -35.2200    6.3040    7.9930 C   0  0  0  0  0  0  0  0  0  0  0  0
  -28.2840    7.9580    7.7010 C   0  0  0  0  0  0  0  0  0  0  0  0
  -27.6800    6.7120    8.0160 C   0  0  0  0  0  0  0  0  0  0  0  0
  -28.9240   12.1720    5.9610 C   0  0  0  0  0  0  0  0  0  0  0  0
  -26.6200   11.8870    5.3360 C   0  0  0  0  0  0  0  0  0  0  0  0
  -32.6970    6.3090    5.3310 O   0  0  0  0  0  0  0  0  0  0  0  0
  -32.4110    9.0110    7.3740 C   0  0  0  0  0  0  0  0  0  0  0  0
  -26.1680    8.5970    6.6020 C   0  0  0  0  0  0  0  0  0  0  0  0
  -26.3680    6.4330    7.6330 C   0  0  0  0  0  0  0  0  0  0  0  0
  -25.6560    9.7280    5.9190 N   0  0  0  0  0  0  0  0  0  0  0  0
  -33.4720   10.9170    8.1630 O   0  0  0  0  0  0  0  0  0  0  0  0
  2 27  1  0
  3  7  2  0
  4 26  2  0
  4  3  4  0
  5 25  1  0
  7 18  1  0
  8 15  1  0
  9 13  1  0
 10 20  4  0
 11  8  1  0
 11 12  1  0
 12  2  1  0
 13 16  1  0
 13 17  1  0
 13  1  1  0
 14  3  4  0
 14 11  1  0
 17  6  1  0
 18 19  2  0
 20 14  4  0
 21 10  4  0
 21  4  4  0
 22  9  2  0
 23 16  1  0
 23 15  1  0
 23  2  1  0
 24  7  1  0
 24  5  2  0
 25 19  1  0
 26 24  1  0
M  END
$$$$

     RDKit          3D

 37 41  0  0  0  0  0  0  0  0999 V2000
  -28.9750   12.1320    6.0220 C   0  0  0  0  0  0  0  0  0  0  0  0
  -28.8100   10.8550    6.6730 C   0  0  0  0  0  0  0  0  0  0  0  0
  -24.7180   13.1040    6.0750 O   0  0  0  0  0  0  0  0  0  0  0  0
  -24.9190    9.2150    6.3920 C   0  0  0  0  0  0  0  0  0  0  0  0
  -33.8440    2.7160   11.4850 O   0  0  0  0  0  0  0  0  0  0  0  0
  -33.9930    2.9750   10.3680 C   0  0  0  0  0  0  0  0  0  0  0  0
  -29.9440   10.4330    7.3620 O   0  0  0  0  0  0  0  0  0  0  0  0
  -34.6160    5.2630    8.8500 C   0  0  0  0  0  0  0  0  0  0  0  0
  -33.2760    4.8830    8.6100 C   0  0  0  0  0  0  0  0  0  0  0  0
  -33.7230    8.2880    7.6170 N   0  0  0  0  0  0  0  0  0  0  0  0
  -25.5970    7.2840    7.0910 C   0  0  0  0  0  0  0  0  0  0  0  0
  -25.1460   10.1500    5.2580 N   0  0  0  0  0  0  0  0  0  0  0  0
  -27.7640   12.6720    5.3760 C   0  0  0  0  0  0  0  0  0  0  0  0
  -33.1380    7.3570    6.3600 C   0  0  0  0  0  0  0  0  0  0  0  0
  -35.8570    4.5080    9.3300 C   0  0  0  0  0  0  0  0  0  0  0  0
  -25.5480   12.5280    5.7600 C   0  0  0  0  0  0  0  0  0  0  0  0
  -30.5680    9.6680    6.3890 N   0  0  0  0  0  0  0  0  0  0  0  0
  -32.4360    7.1470    5.6270 O   0  0  0  0  0  0  0  0  0  0  0  0
  -27.7200    6.8220    8.0160 C   0  0  0  0  0  0  0  0  0  0  0  0
  -24.5950    6.9160    6.6670 F   0  0  0  0  0  0  0  0  0  0  0  0
  -31.1250   11.1780    7.8460 C   0  0  0  0  0  0  0  0  0  0  0  0
  -28.2460    7.9390    7.6680 C   0  0  0  0  0  0  0  0  0  0  0  0
  -35.1590    6.3290    7.9690 C   0  0  0  0  0  0  0  0  0  0  0  0
  -33.0500    3.5610    9.4610 N   0  0  0  0  0  0  0  0  0  0  0  0
  -25.9100    8.4890    6.7230 C   0  0  0  0  0  0  0  0  0  0  0  0
  -32.2970   10.3110    8.0940 C   0  0  0  0  0  0  0  0  0  0  0  0
  -26.4130    6.4640    7.7210 C   0  0  0  0  0  0  0  0  0  0  0  0
  -33.5220   10.9390    8.1810 O   0  0  0  0  0  0  0  0  0  0  0  0
  -32.5690    8.9610    7.2750 C   0  0  0  0  0  0  0  0  0  0  0  0
  -26.6900   11.9090    5.3150 C   0  0  0  0  0  0  0  0  0  0  0  0
  -34.0660    6.9070    7.0860 C   0  0  0  0  0  0  0  0  0  0  0  0
  -27.3260    8.8250    6.9740 C   0  0  0  0  0  0  0  0  0  0  0  0
  -26.5340   10.6080    5.7320 C   0  0  0  0  0  0  0  0  0  0  0  0
  -27.6370   10.0420    6.4660 C   0  0  0  0  0  0  0  0  0  0  0  0
  -23.7330    8.6660    6.0990 F   0  0  0  0  0  0  0  0  0  0  0  0
  -31.2660    8.7640    6.9110 C   0  0  0  0  0  0  0  0  0  0  0  0
  -35.4160    3.1060    9.8610 C   0  0  0  0  0  0  0  0  0  0  0  0
  1  2  1  0
  2  7  1  0
  4 35  1  0
  4 25  1  0
  6  5  2  0
  8 23  1  0
  8 15  1  0
  9  8  1  0
  9 24  1  0
 11 27  4  0
 12  4  1  0
 13  1  2  0
 14 31  1  0
 14 10  1  0
 15 37  1  0
 16  3  2  0
 17 36  1  0
 17  7  1  0
 18 14  2  0
 20 11  1  0
 22 19  4  0
 24  6  1  0
 25 32  4  0
 25 11  4  0
 26 21  1  0
 26 28  1  0
 27 19  4  0
 29 36  1  0
 29 10  1  0
 29 26  1  0
 30 13  1  0
 30 33  1  0
 30 16  2  0
 31 10  1  0
 31 23  1  0
 32 22  4  0
 33 12  1  0
 33 34  1  0
 34  2  2  0
 34 32  1  0
 37  6  1  0
M  END
$$$$

     RDKit          3D

 27 31  0  0  0  0  0  0  0  0999 V2000
  -35.1680    6.2890    8.0130 C   0  0  0  0  0  0  0  0  0  0  0  0
  -34.1560    6.8500    6.9940 C   0  0  0  0  0  0  0  0  0  0  0  0
  -26.0710    8.5720    6.6620 C   0  0  0  0  0  0  0  0  0  0  0  0
  -31.8950    6.6200    6.4430 O   0  0  0  0  0  0  0  0  0  0  0  0
  -33.7380    8.2460    7.6070 N   0  0  0  0  0  0  0  0  0  0  0  0
  -28.9740   12.1240    5.9770 C   0  0  0  0  0  0  0  0  0  0  0  0
  -25.5920    7.3730    7.0490 C   0  0  0  0  0  0  0  0  0  0  0  0
  -27.7350   10.0870    6.5230 C   0  0  0  0  0  0  0  0  0  0  0  0
  -28.9240   10.7600    6.4440 C   0  0  0  0  0  0  0  0  0  0  0  0
  -28.2760    7.9510    7.6100 C   0  0  0  0  0  0  0  0  0  0  0  0
  -31.6580    6.5950    7.9990 C   0  0  0  0  0  0  0  0  0  0  0  0
  -25.5670    9.6300    6.0350 N   0  0  0  0  0  0  0  0  0  0  0  0
  -26.5360   10.6220    5.9470 C   0  0  0  0  0  0  0  0  0  0  0  0
  -30.9440    8.5720    7.2790 O   0  0  0  0  0  0  0  0  0  0  0  0
  -26.3740    6.4510    7.6850 C   0  0  0  0  0  0  0  0  0  0  0  0
  -26.5740   11.9170    5.3170 C   0  0  0  0  0  0  0  0  0  0  0  0
  -32.3640    8.8290    7.6120 C   0  0  0  0  0  0  0  0  0  0  0  0
  -31.3260   12.0010    7.0840 O   0  0  0  0  0  0  0  0  0  0  0  0
  -33.4870   10.9540    8.1440 O   0  0  0  0  0  0  0  0  0  0  0  0
  -32.9260    6.3050    7.0280 C   0  0  0  0  0  0  0  0  0  0  0  0
  -27.7620    6.7390    8.0090 C   0  0  0  0  0  0  0  0  0  0  0  0
  -30.1410    9.9220    6.8760 C   0  0  0  0  0  0  0  0  0  0  0  0
  -31.4560   10.6580    6.8670 C   0  0  0  0  0  0  0  0  0  0  0  0
  -27.4220    8.8670    6.9880 C   0  0  0  0  0  0  0  0  0  0  0  0
  -33.8350    6.0420    5.4560 C   0  0  0  0  0  0  0  0  0  0  0  0
  -27.7630   12.6180    5.3750 C   0  0  0  0  0  0  0  0  0  0  0  0
  -32.2300   10.2290    8.0810 C   0  0  0  0  0  0  0  0  0  0  0  0
  2  5  1  0
  2  1  1  0
  3 24  4  0
  3  7  4  0
  4 20  1  0
  4 11  1  0
  5 17  2  3
  6  9  4  0
  7 15  4  0
  8 24  2  0
  9  8  4  0
  9 22  2  3
 10 21  4  0
 12  3  2  0
 13 12  1  0
 13  8  4  0
 14 17  1  0
 15 21  4  0
 16 26  4  0
 16 13  4  0
 17 27  1  0
 20  2  1  0
 20 11  1  0
 22 14  1  0
 23 22  1  0
 23 18  1  0
 23 27  1  0
 24 10  4  0
 25  2  1  0
 26  6  4  0
 27 19  1  0
M  END
$$$$

     RDKit          3D

 24 26  0  0  0  0  0  0  0  0999 V2000
  -27.4980    8.8500    6.9920 C   0  0  0  0  0  0  0  0  0  0  0  0
  -27.7440    6.7180    8.0220 C   0  0  0  0  0  0  0  0  0  0  0  0
  -26.1130    8.5880    6.6460 C   0  0  0  0  0  0  0  0  0  0  0  0
  -30.0250   10.3630    7.2570 O   0  0  0  0  0  0  0  0  0  0  0  0
  -28.2730    7.9760    7.6500 C   0  0  0  0  0  0  0  0  0  0  0  0
  -33.7290    8.1990    7.6230 N   0  0  0  0  0  0  0  0  0  0  0  0
  -33.5040   10.9480    8.1570 O   0  0  0  0  0  0  0  0  0  0  0  0
  -31.2520    8.3400    6.8380 C   0  0  0  0  0  0  0  0  0  0  0  0
  -25.6220    9.6240    6.0450 N   0  0  0  0  0  0  0  0  0  0  0  0
  -26.4150    6.4380    7.7060 C   0  0  0  0  0  0  0  0  0  0  0  0
  -31.2470   11.0410    7.3420 C   0  0  0  0  0  0  0  0  0  0  0  0
  -26.5940   11.8220    5.3170 C   0  0  0  0  0  0  0  0  0  0  0  0
  -26.5830   10.6140    5.9320 C   0  0  0  0  0  0  0  0  0  0  0  0
  -25.6210    7.3520    6.9740 C   0  0  0  0  0  0  0  0  0  0  0  0
  -32.5830    9.0190    7.0360 C   0  0  0  0  0  0  0  0  0  0  0  0
  -32.5810    6.5580    5.3150 O   0  0  0  0  0  0  0  0  0  0  0  0
  -27.7580   12.6480    5.3940 C   0  0  0  0  0  0  0  0  0  0  0  0
  -32.3020   10.1710    8.1030 C   0  0  0  0  0  0  0  0  0  0  0  0
  -35.1910    6.2980    7.9470 C   0  0  0  0  0  0  0  0  0  0  0  0
  -28.9010   12.1060    6.0190 C   0  0  0  0  0  0  0  0  0  0  0  0
  -28.9390   10.8300    6.5890 C   0  0  0  0  0  0  0  0  0  0  0  0
  -33.8780    6.4250    5.8300 C   0  0  0  0  0  0  0  0  0  0  0  0
  -27.7380   10.0610    6.5200 C   0  0  0  0  0  0  0  0  0  0  0  0
  -33.8490    6.7860    7.3660 C   0  0  0  0  0  0  0  0  0  0  0  0
  1  5  1  0
  3 14  1  0
  3  1  1  0
  4 11  1  0
  5  2  2  0
  9  3  1  0
 10  2  1  0
 11 18  1  0
 12 17  4  0
 12 13  4  0
 13  9  2  0
 13 23  4  0
 14 10  2  0
 15  8  1  0
 15  6  1  0
 15 18  1  0
 16 22  1  0
 17 20  4  0
 18  7  1  0
 20 21  4  0
 21  4  1  0
 22 24  1  0
 23 21  4  0
 23  1  2  0
 24  6  1  0
 24 19  1  0
M  END
$$$$

     RDKit          3D

 21 23  0  0  0  0  0  0  0  0999 V2000
  -27.7740   10.1220    6.5230 C   0  0  0  0  0  0  0  0  0  0  0  0
  -26.3730    6.4390    7.6710 C   0  0  0  0  0  0  0  0  0  0  0  0
  -32.4110    8.8700    7.4660 C   0  0  0  0  0  0  0  0  0  0  0  0
  -30.0390   10.3270    7.0540 O   0  0  0  0  0  0  0  0  0  0  0  0
  -28.9390   12.1310    5.9630 C   0  0  0  0  0  0  0  0  0  0  0  0
  -35.0430    6.1590    7.8200 C   0  0  0  0  0  0  0  0  0  0  0  0
  -27.7160    6.7250    7.9880 C   0  0  0  0  0  0  0  0  0  0  0  0
  -33.8090    6.8530    7.1260 C   0  0  0  0  0  0  0  0  0  0  0  0
  -26.5250   10.5850    5.8600 C   0  0  0  0  0  0  0  0  0  0  0  0
  -33.4950   10.9380    8.1700 O   0  0  0  0  0  0  0  0  0  0  0  0
  -32.2680   10.2460    8.0830 C   0  0  0  0  0  0  0  0  0  0  0  0
  -26.5830   11.9010    5.3520 C   0  0  0  0  0  0  0  0  0  0  0  0
  -28.2580    7.9680    7.6420 C   0  0  0  0  0  0  0  0  0  0  0  0
  -25.5610    7.3510    6.9670 C   0  0  0  0  0  0  0  0  0  0  0  0
  -25.5780    9.6630    6.0020 N   0  0  0  0  0  0  0  0  0  0  0  0
  -26.1630    8.5960    6.6310 C   0  0  0  0  0  0  0  0  0  0  0  0
  -31.2850   11.0290    7.1380 C   0  0  0  0  0  0  0  0  0  0  0  0
  -33.6920    8.2790    7.5910 N   0  0  0  0  0  0  0  0  0  0  0  0
  -27.7950   12.6730    5.3800 C   0  0  0  0  0  0  0  0  0  0  0  0
  -27.4460    8.8850    6.9550 C   0  0  0  0  0  0  0  0  0  0  0  0
  -28.9180   10.8230    6.5400 C   0  0  0  0  0  0  0  0  0  0  0  0
  1 21  1  0
  1 20  2  0
  2  7  4  0
  3 18  2  3
  3 11  1  0
  4 17  1  0
  5 21  1  0
  8 18  1  0
  8  6  1  0
  9 15  1  0
  9  1  1  0
 11 10  1  0
 12 19  1  0
 12  9  2  0
 13  7  4  0
 14  2  4  0
 15 16  2  0
 16 20  4  0
 16 14  4  0
 17 11  1  0
 19  5  2  0
 20 13  4  0
 21  4  1  0
M  END
$$$$

     RDKit          3D

 29 33  0  0  0  0  0  0  0  0999 V2000
  -29.7200    5.2090    8.8450 N   0  0  0  0  0  0  0  0  0  0  0  0
  -28.8980   10.8290    6.5390 C   0  0  0  0  0  0  0  0  0  0  0  0
  -27.7560   12.6370    5.3720 C   0  0  0  0  0  0  0  0  0  0  0  0
  -31.9360    9.0220    6.1620 C   0  0  0  0  0  0  0  0  0  0  0  0
  -33.7740    6.7430    7.5770 C   0  0  0  0  0  0  0  0  0  0  0  0
  -32.2640   10.2440    8.2450 C   0  0  0  0  0  0  0  0  0  0  0  0
  -26.3310    6.5090    7.6170 C   0  0  0  0  0  0  0  0  0  0  0  0
  -27.7130    6.7490    8.0260 C   0  0  0  0  0  0  0  0  0  0  0  0
  -29.9560   10.4010    7.3930 O   0  0  0  0  0  0  0  0  0  0  0  0
  -35.1060    6.2360    7.9140 C   0  0  0  0  0  0  0  0  0  0  0  0
  -25.7010    9.6880    5.9360 N   0  0  0  0  0  0  0  0  0  0  0  0
  -31.0650   11.0560    7.7550 C   0  0  0  0  0  0  0  0  0  0  0  0
  -26.5970   11.9260    5.3750 C   0  0  0  0  0  0  0  0  0  0  0  0
  -29.8550    4.0220    9.2330 O   0  0  0  0  0  0  0  0  0  0  0  0
  -27.7120   10.1660    6.4940 C   0  0  0  0  0  0  0  0  0  0  0  0
  -33.6710    8.2880    7.6200 N   0  0  0  0  0  0  0  0  0  0  0  0
  -32.4160    8.8650    7.6100 C   0  0  0  0  0  0  0  0  0  0  0  0
  -25.5510    7.4220    6.9500 C   0  0  0  0  0  0  0  0  0  0  0  0
  -26.6100   10.5990    5.9080 C   0  0  0  0  0  0  0  0  0  0  0  0
  -26.1730    8.6540    6.6510 C   0  0  0  0  0  0  0  0  0  0  0  0
  -28.9600   12.1220    5.9870 C   0  0  0  0  0  0  0  0  0  0  0  0
  -32.6010    6.2510    8.4280 C   0  0  0  0  0  0  0  0  0  0  0  0
  -28.3690    5.5770    8.7090 C   0  0  0  0  0  0  0  0  0  0  0  0
  -30.9630    8.3550    6.8660 O   0  0  0  0  0  0  0  0  0  0  0  0
  -28.2740    7.9770    7.6640 C   0  0  0  0  0  0  0  0  0  0  0  0
  -27.5080    8.8750    6.9490 C   0  0  0  0  0  0  0  0  0  0  0  0
  -27.5300    4.6810    8.9830 O   0  0  0  0  0  0  0  0  0  0  0  0
  -33.4880   10.9410    8.1690 O   0  0  0  0  0  0  0  0  0  0  0  0
  -31.2650    5.6100    8.3900 C   0  0  0  0  0  0  0  0  0  0  0  0
  1 14  1  0
  2  9  1  0
  3 13  4  0
  3 21  4  0
  4 24  1  0
  5 16  1  0
  5 10  1  0
  5 22  1  0
  6 28  1  0
  7  8  1  0
  8 23  1  0
  9 12  1  0
 11 20  1  0
 12  6  1  0
 13 19  4  0
 15  2  4  0
 15 26  2  0
 17  4  1  0
 17 16  1  0
 17  6  1  0
 18  7  2  0
 19 11  2  0
 19 15  4  0
 20 26  1  0
 20 18  1  0
 21  2  4  0
 23  1  1  0
 23 27  2  0
 24 17  1  0
 25  8  2  0
 26 25  1  0
 29 22  1  0
 29  1  1  0
M  END
$$$$

     RDKit          3D

 27 29  0  0  0  0  0  0  0  0999 V2000
  -32.3620    8.8030    7.4460 C   0  0  0  0  0  0  0  0  0  0  0  0
  -25.6250    7.3200    7.0140 C   0  0  0  0  0  0  0  0  0  0  0  0
  -28.9510   12.1470    6.0130 C   0  0  0  0  0  0  0  0  0  0  0  0
  -26.0800    8.4550    6.7380 C   0  0  0  0  0  0  0  0  0  0  0  0
  -33.3650    4.7580    8.3810 C   0  0  0  0  0  0  0  0  0  0  0  0
  -35.1580    6.3430    7.9430 C   0  0  0  0  0  0  0  0  0  0  0  0
  -35.3130    2.9660    7.5670 O   0  0  0  0  0  0  0  0  0  0  0  0
  -35.5010    4.0030    8.2070 C   0  0  0  0  0  0  0  0  0  0  0  0
  -36.7260    4.2800    8.6320 O   0  0  0  0  0  0  0  0  0  0  0  0
  -32.2240   10.2050    8.0460 C   0  0  0  0  0  0  0  0  0  0  0  0
  -27.4250    8.8140    6.9640 C   0  0  0  0  0  0  0  0  0  0  0  0
  -33.5130   10.9370    8.1860 O   0  0  0  0  0  0  0  0  0  0  0  0
  -27.7770   12.6230    5.4380 C   0  0  0  0  0  0  0  0  0  0  0  0
  -24.9510    9.3030    6.3060 C   0  0  0  0  0  0  0  0  0  0  0  0
  -33.7060    8.2820    7.5590 N   0  0  0  0  0  0  0  0  0  0  0  0
  -29.9830   10.4190    7.2330 O   0  0  0  0  0  0  0  0  0  0  0  0
  -33.8580    6.8800    7.3640 C   0  0  0  0  0  0  0  0  0  0  0  0
  -27.6830   10.1310    6.4530 C   0  0  0  0  0  0  0  0  0  0  0  0
  -27.6850    6.7100    8.0220 C   0  0  0  0  0  0  0  0  0  0  0  0
  -28.2690    7.9310    7.6880 C   0  0  0  0  0  0  0  0  0  0  0  0
  -26.5120   10.7460    5.8370 C   0  0  0  0  0  0  0  0  0  0  0  0
  -34.6320    5.0140    8.5010 C   0  0  0  0  0  0  0  0  0  0  0  0
  -25.3170   10.3130    5.6460 N   0  0  0  0  0  0  0  0  0  0  0  0
  -28.8730   10.8560    6.5890 C   0  0  0  0  0  0  0  0  0  0  0  0
  -31.3200   10.9760    7.1420 C   0  0  0  0  0  0  0  0  0  0  0  0
  -26.6660   11.8860    5.3110 C   0  0  0  0  0  0  0  0  0  0  0  0
  -26.4000    6.4030    7.6620 C   0  0  0  0  0  0  0  0  0  0  0  0
  1 15  1  0
  1 10  1  0
  2 27  4  0
  3 24  4  0
  4 11  4  0
  4  2  4  0
  5 22  2  0
  6 22  1  0
  7  8  2  0
  8 22  1  0
  8  9  1  0
 10 12  1  0
 11 20  4  0
 13  3  4  0
 14  4  1  0
 17 15  1  0
 17  6  1  0
 18 24  4  0
 18 11  1  0
 20 19  4  0
 21 18  4  0
 23 21  1  0
 23 14  1  0
 24 16  1  0
 25 16  1  0
 25 10  1  0
 26 13  4  0
 26 21  4  0
 27 19  4  0
M  END
$$$$

     RDKit          3D

 37 41  0  0  0  0  0  0  0  0999 V2000
  -31.9810    6.6670    8.1980 C   0  0  0  0  0  0  0  0  0  0  0  0
  -25.6550   13.6230    5.5140 F   0  0  0  0  0  0  0  0  0  0  0  0
  -35.0160    5.1290    8.8480 C   0  0  0  0  0  0  0  0  0  0  0  0
  -27.8010   10.1760    6.4850 C   0  0  0  0  0  0  0  0  0  0  0  0
  -26.7060   13.6480    4.7470 C   0  0  0  0  0  0  0  0  0  0  0  0
  -25.6470   10.7530    5.4950 C   0  0  0  0  0  0  0  0  0  0  0  0
  -34.7400    4.7110   10.3640 C   0  0  0  0  0  0  0  0  0  0  0  0
  -26.8290   11.4320    5.6030 C   0  0  0  0  0  0  0  0  0  0  0  0
  -25.1800    9.4660    5.9930 C   0  0  0  0  0  0  0  0  0  0  0  0
  -30.8020    8.5520    5.7400 S   0  0  0  0  0  0  0  0  0  0  0  0
  -24.1240    8.8470    5.9730 O   0  0  0  0  0  0  0  0  0  0  0  0
  -33.4580    2.4730    9.5080 C   0  0  0  0  0  0  0  0  0  0  0  0
  -27.3360   14.7340    4.9920 F   0  0  0  0  0  0  0  0  0  0  0  0
  -32.6030    5.4630    8.9650 C   0  0  0  0  0  0  0  0  0  0  0  0
  -32.9230    7.2660    7.2240 C   0  0  0  0  0  0  0  0  0  0  0  0
  -25.6350    7.3680    7.0170 C   0  0  0  0  0  0  0  0  0  0  0  0
  -28.9740   10.9990    6.6820 C   0  0  0  0  0  0  0  0  0  0  0  0
  -34.3250    6.9650    7.2300 C   0  0  0  0  0  0  0  0  0  0  0  0
  -34.4600    2.3010   10.4500 O   0  0  0  0  0  0  0  0  0  0  0  0
  -33.7440    4.5710    8.3220 N   0  0  0  0  0  0  0  0  0  0  0  0
  -28.2980    7.9850    7.6250 C   0  0  0  0  0  0  0  0  0  0  0  0
  -27.5000    8.8320    6.9910 C   0  0  0  0  0  0  0  0  0  0  0  0
  -31.3280   10.8780    7.0770 C   0  0  0  0  0  0  0  0  0  0  0  0
  -34.0530    3.1010    8.1950 C   0  0  0  0  0  0  0  0  0  0  0  0
  -28.9100   12.1230    5.9870 C   0  0  0  0  0  0  0  0  0  0  0  0
  -26.5700   13.0910    3.5280 F   0  0  0  0  0  0  0  0  0  0  0  0
  -32.3150    7.7890    5.8680 C   0  0  0  0  0  0  0  0  0  0  0  0
  -27.6430   12.5400    5.3970 C   0  0  0  0  0  0  0  0  0  0  0  0
  -27.7060    6.7020    8.0210 C   0  0  0  0  0  0  0  0  0  0  0  0
  -33.5030   10.9480    8.1590 O   0  0  0  0  0  0  0  0  0  0  0  0
  -26.1960    8.5580    6.6570 C   0  0  0  0  0  0  0  0  0  0  0  0
  -30.0430   10.8200    7.6090 N   0  0  0  0  0  0  0  0  0  0  0  0
  -35.2140    6.3410    7.9910 C   0  0  0  0  0  0  0  0  0  0  0  0
  -33.7510    8.1920    7.5970 N   0  0  0  0  0  0  0  0  0  0  0  0
  -35.1950    3.5150   10.7690 C   0  0  0  0  0  0  0  0  0  0  0  0
  -32.2560   10.1330    7.9630 C   0  0  0  0  0  0  0  0  0  0  0  0
  -26.3730    6.4040    7.6950 C   0  0  0  0  0  0  0  0  0  0  0  0
  1 14  1  0
  3 33  1  0
  3  7  1  0
  4 17  1  0
  4 22  1  0
  5 13  1  0
  5 28  1  0
  5  2  1  0
  6  8  1  0
  6  9  1  0
  7 35  1  0
  8  4  2  0
  9 31  1  0
 10 27  1  0
 11  9  2  0
 12 19  1  0
 15 27  1  0
 15 18  1  0
 15 34  1  0
 15  1  1  0
 16 37  4  0
 17 32  1  0
 18 34  1  0
 18 33  1  0
 19 35  1  0
 20 24  1  0
 20  3  1  0
 20 14  1  0
 21 29  4  0
 22 21  4  0
 23 32  1  0
 23 36  1  0
 24 12  1  0
 25 17  1  0
 26  5  1  0
 28  8  1  0
 28 25  2  0
 31 22  4  0
 31 16  4  0
 36 30  1  0
 37 29  4  0
M  END
$$$$

     RDKit          3D

 27 30  0  0  0  0  0  0  0  0999 V2000
  -26.1190    8.5720    6.6340 C   0  0  0  0  0  0  0  0  0  0  0  0
  -27.6770    6.7350    7.9910 C   0  0  0  0  0  0  0  0  0  0  0  0
  -25.6470    9.6240    5.9080 N   0  0  0  0  0  0  0  0  0  0  0  0
  -26.5530   11.8990    5.3430 C   0  0  0  0  0  0  0  0  0  0  0  0
  -32.2700   10.3070    8.0530 C   0  0  0  0  0  0  0  0  0  0  0  0
  -26.3640    6.4410    7.6590 C   0  0  0  0  0  0  0  0  0  0  0  0
  -31.4240    7.9210    7.7980 O   0  0  0  0  0  0  0  0  0  0  0  0
  -28.9510   12.1560    5.9860 C   0  0  0  0  0  0  0  0  0  0  0  0
  -35.1260    6.2140    7.9680 C   0  0  0  0  0  0  0  0  0  0  0  0
  -26.6380   10.6300    5.8320 C   0  0  0  0  0  0  0  0  0  0  0  0
  -31.3950   11.0320    7.0680 C   0  0  0  0  0  0  0  0  0  0  0  0
  -33.7110    8.2300    7.6200 N   0  0  0  0  0  0  0  0  0  0  0  0
  -34.0180    6.5730    5.7560 C   0  0  0  0  0  0  0  0  0  0  0  0
  -30.1340   10.2920    7.1050 O   0  0  0  0  0  0  0  0  0  0  0  0
  -33.8330    6.7580    7.3110 C   0  0  0  0  0  0  0  0  0  0  0  0
  -27.4540    8.8330    6.9300 C   0  0  0  0  0  0  0  0  0  0  0  0
  -27.7500   12.6250    5.3800 C   0  0  0  0  0  0  0  0  0  0  0  0
  -32.3550    8.9040    7.3770 C   0  0  0  0  0  0  0  0  0  0  0  0
  -25.5530    7.3330    6.9750 C   0  0  0  0  0  0  0  0  0  0  0  0
  -33.4630   10.9400    8.1610 O   0  0  0  0  0  0  0  0  0  0  0  0
  -30.7450    8.9510    6.9350 C   0  0  0  0  0  0  0  0  0  0  0  0
  -25.6440   12.2330    4.7630 O   0  0  0  0  0  0  0  0  0  0  0  0
  -32.8000    5.2880    8.8060 C   0  0  0  0  0  0  0  0  0  0  0  0
  -32.8050    5.8320    7.4560 O   0  0  0  0  0  0  0  0  0  0  0  0
  -28.9520   10.8560    6.5230 C   0  0  0  0  0  0  0  0  0  0  0  0
  -28.2050    7.9340    7.6270 C   0  0  0  0  0  0  0  0  0  0  0  0
  -27.7600   10.1310    6.4750 C   0  0  0  0  0  0  0  0  0  0  0  0
  1 16  1  0
  1 19  1  0
  3  1  2  0
  4 17  1  0
  4 10  1  0
  5 20  1  0
  6  2  1  0
  8 25  2  0
 10  3  1  0
 10 27  2  0
 11 14  1  0
 11  5  1  0
 13 15  1  0
 15 24  1  0
 15 12  1  0
 15  9  1  0
 16 26  1  0
 17  8  1  0
 18 12  1  0
 18  7  1  0
 18  5  1  0
 19  6  2  0
 21 18  1  0
 21  7  1  0
 22  4  2  0
 24 23  1  0
 25 14  1  0
 26  2  2  0
 27 25  1  0
 27 16  1  0
M  END
$$$$

     RDKit          3D

 24 28  0  0  0  0  0  0  0  0999 V2000
  -29.9310    8.5890    7.5850 C   0  0  0  0  0  0  0  0  0  0  0  0
  -27.4120    8.8520    6.9680 C   0  0  0  0  0  0  0  0  0  0  0  0
  -28.2770    7.9430    7.6470 C   0  0  0  0  0  0  0  0  0  0  0  0
  -31.2750    8.1540    7.0200 C   0  0  0  0  0  0  0  0  0  0  0  0
  -27.7320    6.7200    7.9910 C   0  0  0  0  0  0  0  0  0  0  0  0
  -33.8410    6.7960    7.4220 C   0  0  0  0  0  0  0  0  0  0  0  0
  -26.6390   11.8780    5.3330 C   0  0  0  0  0  0  0  0  0  0  0  0
  -35.1410    6.3150    7.9890 C   0  0  0  0  0  0  0  0  0  0  0  0
  -32.2960   10.1790    8.0540 C   0  0  0  0  0  0  0  0  0  0  0  0
  -28.8620   10.7860    6.5200 C   0  0  0  0  0  0  0  0  0  0  0  0
  -31.1960   10.8710    7.3460 C   0  0  0  0  0  0  0  0  0  0  0  0
  -33.7840    8.2440    7.5950 N   0  0  0  0  0  0  0  0  0  0  0  0
  -26.1450    8.5790    6.6310 C   0  0  0  0  0  0  0  0  0  0  0  0
  -33.4710   10.9640    8.1600 O   0  0  0  0  0  0  0  0  0  0  0  0
  -27.6720   10.1220    6.4790 C   0  0  0  0  0  0  0  0  0  0  0  0
  -32.5010    9.0030    7.2100 C   0  0  0  0  0  0  0  0  0  0  0  0
  -30.0620    9.9900    7.0230 N   0  0  0  0  0  0  0  0  0  0  0  0
  -28.9470   12.1200    6.0130 C   0  0  0  0  0  0  0  0  0  0  0  0
  -25.5510    7.3720    6.9710 C   0  0  0  0  0  0  0  0  0  0  0  0
  -26.3920    6.4430    7.6730 C   0  0  0  0  0  0  0  0  0  0  0  0
  -26.5550   10.6090    5.8510 C   0  0  0  0  0  0  0  0  0  0  0  0
  -27.7450   12.6390    5.3710 C   0  0  0  0  0  0  0  0  0  0  0  0
  -33.8850    6.4230    5.9430 C   0  0  0  0  0  0  0  0  0  0  0  0
  -25.6100    9.6300    5.9210 N   0  0  0  0  0  0  0  0  0  0  0  0
  1  3  4  0
  2  3  4  0
  3  5  4  0
  4 16  1  0
  4  1  1  0
  6 12  1  0
  6  8  1  0
  7 22  4  0
  7 21  4  0
  9 14  1  0
 10 17  4  0
 11  9  1  0
 13  2  4  0
 13 19  4  0
 15 10  4  0
 15  2  2  0
 16 12  1  0
 16  9  1  0
 17 11  1  0
 17  1  4  0
 18 10  4  0
 19 20  4  0
 20  5  4  0
 21 24  4  0
 21 15  4  0
 22 18  4  0
 23  6  1  0
 24 13  4  0
M  END
$$$$

     RDKit          3D

 21 23  0  0  0  0  0  0  0  0999 V2000
  -25.6430    9.6080    5.9900 N   0  0  0  0  0  0  0  0  0  0  0  0
  -28.9350   12.1710    5.9970 C   0  0  0  0  0  0  0  0  0  0  0  0
  -29.0030   10.8470    6.5080 C   0  0  0  0  0  0  0  0  0  0  0  0
  -31.6070    9.8160    7.1080 C   0  0  0  0  0  0  0  0  0  0  0  0
  -28.3070    7.9220    7.6310 C   0  0  0  0  0  0  0  0  0  0  0  0
  -27.4550    8.7980    6.9830 C   0  0  0  0  0  0  0  0  0  0  0  0
  -33.9450    6.8930    7.2120 C   0  0  0  0  0  0  0  0  0  0  0  0
  -33.4770   10.9770    8.1490 O   0  0  0  0  0  0  0  0  0  0  0  0
  -26.5680   11.8780    5.3370 C   0  0  0  0  0  0  0  0  0  0  0  0
  -27.7770   12.6420    5.3880 C   0  0  0  0  0  0  0  0  0  0  0  0
  -30.1970   10.2120    7.0110 O   0  0  0  0  0  0  0  0  0  0  0  0
  -26.3750    6.4180    7.6910 C   0  0  0  0  0  0  0  0  0  0  0  0
  -25.5450    7.3560    6.9980 C   0  0  0  0  0  0  0  0  0  0  0  0
  -32.2260    8.4400    7.3590 C   0  0  0  0  0  0  0  0  0  0  0  0
  -26.1670    8.5780    6.6090 C   0  0  0  0  0  0  0  0  0  0  0  0
  -27.7020    6.7410    7.9770 C   0  0  0  0  0  0  0  0  0  0  0  0
  -35.1760    6.2530    7.9900 C   0  0  0  0  0  0  0  0  0  0  0  0
  -33.7050    8.2490    7.5430 N   0  0  0  0  0  0  0  0  0  0  0  0
  -32.0850   10.5550    8.3490 C   0  0  0  0  0  0  0  0  0  0  0  0
  -27.7680   10.1040    6.5060 C   0  0  0  0  0  0  0  0  0  0  0  0
  -26.5890   10.5700    5.8620 C   0  0  0  0  0  0  0  0  0  0  0  0
  1 15  1  0
  2  3  4  0
  3 11  1  0
  4 14  1  0
  4 19  1  0
  5 16  2  0
  6  5  1  0
  7 18  1  0
  7 17  1  0
  8 19  1  0
  9 10  4  0
  9 21  4  0
 10  2  4  0
 11  4  1  0
 12 16  1  0
 13 12  2  0
 14 18  1  0
 15  6  1  0
 15 13  1  0
 20  3  4  0
 20  6  2  0
 21  1  2  0
 21 20  4  0
M  END
$$$$

     RDKit          3D

 29 33  0  0  0  0  0  0  0  0999 V2000
  -28.9070    5.9060    8.6020 C   0  0  0  0  0  0  0  0  0  0  0  0
  -31.2180   10.8850    7.3900 C   0  0  0  0  0  0  0  0  0  0  0  0
  -34.7620    5.1080    8.8350 C   0  0  0  0  0  0  0  0  0  0  0  0
  -26.4230    6.4020    7.7030 C   0  0  0  0  0  0  0  0  0  0  0  0
  -33.4460   10.9110    8.1530 O   0  0  0  0  0  0  0  0  0  0  0  0
  -31.3590   12.0060    6.9760 O   0  0  0  0  0  0  0  0  0  0  0  0
  -27.7400   10.1030    6.5020 C   0  0  0  0  0  0  0  0  0  0  0  0
  -26.6100   11.8640    5.3270 C   0  0  0  0  0  0  0  0  0  0  0  0
  -32.2920    8.7930    7.4220 C   0  0  0  0  0  0  0  0  0  0  0  0
  -28.2300    7.9460    7.6570 C   0  0  0  0  0  0  0  0  0  0  0  0
  -35.1600    6.2780    7.9470 C   0  0  0  0  0  0  0  0  0  0  0  0
  -28.6970    4.7940    9.0920 O   0  0  0  0  0  0  0  0  0  0  0  0
  -33.8350    6.8210    7.3420 C   0  0  0  0  0  0  0  0  0  0  0  0
  -27.4280    8.8350    6.9640 C   0  0  0  0  0  0  0  0  0  0  0  0
  -30.0810   10.1220    7.2690 O   0  0  0  0  0  0  0  0  0  0  0  0
  -25.6210    7.3330    7.0200 C   0  0  0  0  0  0  0  0  0  0  0  0
  -25.6010    9.5870    5.9220 N   0  0  0  0  0  0  0  0  0  0  0  0
  -28.8720   10.8370    6.5610 C   0  0  0  0  0  0  0  0  0  0  0  0
  -29.7440    8.6680    7.7460 C   0  0  0  0  0  0  0  0  0  0  0  0
  -30.3030    6.4890    8.4380 O   0  0  0  0  0  0  0  0  0  0  0  0
  -27.8150   12.6420    5.3990 C   0  0  0  0  0  0  0  0  0  0  0  0
  -33.7020    8.2670    7.6040 N   0  0  0  0  0  0  0  0  0  0  0  0
  -31.0270    7.7520    7.8580 C   0  0  0  0  0  0  0  0  0  0  0  0
  -26.5410   10.6060    5.9210 C   0  0  0  0  0  0  0  0  0  0  0  0
  -32.3550   10.1190    8.1110 C   0  0  0  0  0  0  0  0  0  0  0  0
  -28.9160   12.1290    5.9970 C   0  0  0  0  0  0  0  0  0  0  0  0
  -25.7330    5.1710    8.3110 C   0  0  0  0  0  0  0  0  0  0  0  0
  -26.1380    8.5180    6.5900 C   0  0  0  0  0  0  0  0  0  0  0  0
  -27.7230    6.7620    7.9770 C   0  0  0  0  0  0  0  0  0  0  0  0
  1 12  2  0
  2 25  1  0
  4 29  1  0
  4 27  1  0
  6  2  2  0
  7 18  4  0
  8 21  4  0
  8 24  4  0
  9 22  1  0
  9 23  1  0
  9 25  1  0
 10 19  1  0
 10 29  2  0
 11  3  1  0
 13 22  1  0
 13 11  1  0
 14  7  1  0
 14 10  1  0
 15  2  1  0
 16  4  2  0
 17 28  2  0
 19 15  1  0
 19 23  1  0
 20  1  1  0
 21 26  4  0
 23 20  1  0
 24 17  1  0
 24  7  4  0
 25  5  1  0
 26 18  4  0
 28 14  1  0
 28 16  1  0
 29  1  1  0
M  END
$$$$

     RDKit          3D

 27 30  0  0  0  0  0  0  0  0999 V2000
  -25.6120    5.1610    7.8950 C   0  0  0  0  0  0  0  0  0  0  0  0
  -27.7550   12.6240    5.4020 C   0  0  0  0  0  0  0  0  0  0  0  0
  -30.5760   11.7240    7.6070 C   0  0  0  0  0  0  0  0  0  0  0  0
  -26.1730    8.6340    6.6140 C   0  0  0  0  0  0  0  0  0  0  0  0
  -28.9800   10.8520    6.4470 C   0  0  0  0  0  0  0  0  0  0  0  0
  -32.3990    8.8620    7.4240 C   0  0  0  0  0  0  0  0  0  0  0  0
  -26.3880    6.4650    7.6530 C   0  0  0  0  0  0  0  0  0  0  0  0
  -27.8020   10.1480    6.4590 C   0  0  0  0  0  0  0  0  0  0  0  0
  -27.6790    6.7350    8.0260 C   0  0  0  0  0  0  0  0  0  0  0  0
  -25.6700    9.6290    5.9490 N   0  0  0  0  0  0  0  0  0  0  0  0
  -25.6310    7.3950    7.0010 C   0  0  0  0  0  0  0  0  0  0  0  0
  -33.9600    6.9270    7.6220 C   0  0  0  0  0  0  0  0  0  0  0  0
  -26.6090   10.6430    5.8490 C   0  0  0  0  0  0  0  0  0  0  0  0
  -27.5080    8.8510    6.9240 C   0  0  0  0  0  0  0  0  0  0  0  0
  -25.8540    4.4280    8.7390 N   0  0  0  0  0  0  0  0  0  0  0  0
  -30.1810   10.3580    6.7510 O   0  0  0  0  0  0  0  0  0  0  0  0
  -33.8980    5.0300    6.7890 N   0  0  0  0  0  0  0  0  0  0  0  0
  -33.0690    5.9590    7.4580 O   0  0  0  0  0  0  0  0  0  0  0  0
  -26.6150   11.8900    5.3630 C   0  0  0  0  0  0  0  0  0  0  0  0
  -33.5080   10.9700    8.1320 O   0  0  0  0  0  0  0  0  0  0  0  0
  -32.2670   10.2180    8.0690 C   0  0  0  0  0  0  0  0  0  0  0  0
  -28.2820    7.9330    7.6850 C   0  0  0  0  0  0  0  0  0  0  0  0
  -35.1880    6.3780    8.0050 C   0  0  0  0  0  0  0  0  0  0  0  0
  -35.0990    4.9560    7.5450 C   0  0  0  0  0  0  0  0  0  0  0  0
  -33.7240    8.2160    7.5550 N   0  0  0  0  0  0  0  0  0  0  0  0
  -31.4090   11.0470    7.0230 C   0  0  0  0  0  0  0  0  0  0  0  0
  -28.8860   12.1370    5.9860 C   0  0  0  0  0  0  0  0  0  0  0  0
  1 15  2  0
  2 27  4  0
  4 14  1  0
  4 11  1  0
  5  8  4  0
  5 16  1  0
  6 25  1  0
  6 21  1  0
  7  1  1  0
  7  9  1  0
  8 14  1  0
 10  4  2  0
 11  7  2  0
 12 23  1  0
 13 10  1  0
 13  8  4  0
 14 22  1  0
 16 26  1  0
 17 18  1  0
 17 24  1  0
 18 12  1  0
 19  2  4  0
 19 13  4  0
 21 20  1  0
 22  9  2  0
 24 23  1  0
 25 12  2  3
 26  3  1  0
 26 21  1  0
 27  5  4  0
M  END
$$$$

     RDKit          3D

 37 39  0  0  0  0  0  0  0  0999 V2000
  -28.2990    7.9990    7.6780 C   0  0  0  0  0  0  0  0  0  0  0  0
  -30.0190   10.1440    7.1520 O   0  0  0  0  0  0  0  0  0  0  0  0
  -25.2940   10.2470    5.9710 N   0  0  0  0  0  0  0  0  0  0  0  0
  -28.8380   10.8260    6.4930 C   0  0  0  0  0  0  0  0  0  0  0  0
  -32.5800    5.1090    8.2930 F   0  0  0  0  0  0  0  0  0  0  0  0
  -27.6590   10.0860    6.4360 C   0  0  0  0  0  0  0  0  0  0  0  0
  -26.1620    8.4550    6.5540 C   0  0  0  0  0  0  0  0  0  0  0  0
  -34.3780    4.5010    6.4830 F   0  0  0  0  0  0  0  0  0  0  0  0
  -26.2530    5.0670    9.6770 F   0  0  0  0  0  0  0  0  0  0  0  0
  -32.2230   10.3150    8.1200 C   0  0  0  0  0  0  0  0  0  0  0  0
  -26.4020    6.4350    7.7580 C   0  0  0  0  0  0  0  0  0  0  0  0
  -25.6440    7.2630    7.0060 C   0  0  0  0  0  0  0  0  0  0  0  0
  -26.5020   10.7300    5.9010 C   0  0  0  0  0  0  0  0  0  0  0  0
  -33.5110   10.9900    8.1440 O   0  0  0  0  0  0  0  0  0  0  0  0
  -26.6150   11.9370    5.3480 C   0  0  0  0  0  0  0  0  0  0  0  0
  -35.0920    6.4010    7.9340 C   0  0  0  0  0  0  0  0  0  0  0  0
  -24.5830    5.1550    8.4790 F   0  0  0  0  0  0  0  0  0  0  0  0
  -26.3710    4.1110    7.7210 F   0  0  0  0  0  0  0  0  0  0  0  0
  -27.7310    6.7350    8.0060 C   0  0  0  0  0  0  0  0  0  0  0  0
  -25.9370    5.1610    8.4080 C   0  0  0  0  0  0  0  0  0  0  0  0
  -28.9090   12.1390    6.0110 C   0  0  0  0  0  0  0  0  0  0  0  0
  -31.1750   10.9910    7.2060 C   0  0  0  0  0  0  0  0  0  0  0  0
  -34.1170    7.2120    7.0180 C   0  0  0  0  0  0  0  0  0  0  0  0
  -28.0830   13.9920    4.7200 C   0  0  0  0  0  0  0  0  0  0  0  0
  -33.5210    7.1150    5.7870 O   0  0  0  0  0  0  0  0  0  0  0  0
  -33.7130    8.2490    7.6350 N   0  0  0  0  0  0  0  0  0  0  0  0
  -24.1050   10.8680    6.4260 C   0  0  0  0  0  0  0  0  0  0  0  0
  -29.5590   13.9460    5.0470 N   0  0  0  0  0  0  0  0  0  0  0  0
  -33.8360    4.6400    8.7540 C   0  0  0  0  0  0  0  0  0  0  0  0
  -34.8270    4.9180    7.6650 C   0  0  0  0  0  0  0  0  0  0  0  0
  -34.0850    3.4990    9.4110 F   0  0  0  0  0  0  0  0  0  0  0  0
  -35.9050    4.1060    7.9060 F   0  0  0  0  0  0  0  0  0  0  0  0
  -31.1860   12.1970    6.9860 O   0  0  0  0  0  0  0  0  0  0  0  0
  -32.3740    8.8350    7.6720 C   0  0  0  0  0  0  0  0  0  0  0  0
  -27.7590   12.6450    5.3950 C   0  0  0  0  0  0  0  0  0  0  0  0
  -27.4390    8.8470    6.8890 C   0  0  0  0  0  0  0  0  0  0  0  0
  -25.1550    8.9870    5.4370 C   0  0  0  0  0  0  0  0  0  0  0  0
  1 19  4  0
  2 22  1  0
  3 27  1  0
  4  2  1  0
  5 29  1  0
  6  4  4  0
  6 36  1  0
  7 36  4  0
  7 12  4  0
  8 30  1  0
 10 14  1  0
 11 19  4  0
 11 20  1  0
 12 11  4  0
 13  3  1  0
 13  6  4  0
 15 35  4  0
 15 13  4  0
 18 20  1  0
 20 17  1  0
 20  9  1  0
 21  4  4  0
 22 10  1  0
 23 26  1  0
 23 16  1  0
 24 28  1  0
 24 35  1  0
 25 23  2  0
 26 34  2  3
 29 31  1  0
 30 32  1  0
 30 16  1  0
 30 29  1  0
 33 22  2  0
 34 10  1  0
 35 21  4  0
 36  1  4  0
 37  3  1  0
 37  7  1  0
M  END
$$$$

     RDKit          3D

 27 30  0  0  0  0  0  0  0  0999 V2000
  -28.2890    7.9540    7.6270 C   0  0  0  0  0  0  0  0  0  0  0  0
  -26.6240   10.6240    5.8530 C   0  0  0  0  0  0  0  0  0  0  0  0
  -33.7930    6.7280    7.4230 C   0  0  0  0  0  0  0  0  0  0  0  0
  -26.1030    8.6500    6.6570 C   0  0  0  0  0  0  0  0  0  0  0  0
  -32.5260    8.8980    7.2320 C   0  0  0  0  0  0  0  0  0  0  0  0
  -31.3230   11.0140    7.1280 C   0  0  0  0  0  0  0  0  0  0  0  0
  -25.5680    7.3830    6.9890 C   0  0  0  0  0  0  0  0  0  0  0  0
  -27.9650    4.6030    8.8870 O   0  0  0  0  0  0  0  0  0  0  0  0
  -32.4040    6.4400    8.0870 C   0  0  0  0  0  0  0  0  0  0  0  0
  -27.7870   12.6200    5.4000 C   0  0  0  0  0  0  0  0  0  0  0  0
  -29.9400    5.8940    8.9040 O   0  0  0  0  0  0  0  0  0  0  0  0
  -27.5110    8.8760    6.9670 C   0  0  0  0  0  0  0  0  0  0  0  0
  -26.3490    6.4460    7.6450 C   0  0  0  0  0  0  0  0  0  0  0  0
  -32.2870   10.2720    7.9960 C   0  0  0  0  0  0  0  0  0  0  0  0
  -27.7830   10.1280    6.5650 C   0  0  0  0  0  0  0  0  0  0  0  0
  -30.0430   10.4790    7.2150 O   0  0  0  0  0  0  0  0  0  0  0  0
  -27.7090    6.6980    7.9840 C   0  0  0  0  0  0  0  0  0  0  0  0
  -28.5320    5.6510    8.6110 C   0  0  0  0  0  0  0  0  0  0  0  0
  -33.4680   10.9410    8.2000 O   0  0  0  0  0  0  0  0  0  0  0  0
  -25.5440    9.6620    5.9920 N   0  0  0  0  0  0  0  0  0  0  0  0
  -26.5680   11.8890    5.3550 C   0  0  0  0  0  0  0  0  0  0  0  0
  -35.1750    6.3510    7.9500 C   0  0  0  0  0  0  0  0  0  0  0  0
  -28.9310   10.8570    6.5610 C   0  0  0  0  0  0  0  0  0  0  0  0
  -31.5820    5.6330    8.7810 C   0  0  0  0  0  0  0  0  0  0  0  0
  -28.9230   12.1270    6.0120 C   0  0  0  0  0  0  0  0  0  0  0  0
  -33.7150    6.3310    5.9710 C   0  0  0  0  0  0  0  0  0  0  0  0
  -33.6870    8.2280    7.6300 N   0  0  0  0  0  0  0  0  0  0  0  0
  1 17  4  0
  2 20  2  0
  2 15  1  0
  3 27  1  0
  3 22  1  0
  3  9  1  0
  4 12  4  0
  4  7  4  0
  5 27  1  0
  5 14  1  0
  6 16  1  0
  6 14  1  0
  7 13  4  0
  9 24  2  0
 10 25  2  0
 12  1  4  0
 13 17  4  0
 14 19  1  0
 15 12  1  0
 17 18  1  0
 18  8  2  0
 18 11  1  0
 20  4  1  0
 21 10  1  0
 21  2  1  0
 23 15  2  0
 23 16  1  0
 24 11  1  0
 25 23  1  0
 26  3  1  0
M  END
$$$$

     RDKit          3D

 24 27  0  0  0  0  0  0  0  0999 V2000
  -27.6970    6.7510    7.9420 C   0  0  0  0  0  0  0  0  0  0  0  0
  -30.5440    9.7570    6.5240 C   0  0  0  0  0  0  0  0  0  0  0  0
  -26.5930   11.8440    5.3710 C   0  0  0  0  0  0  0  0  0  0  0  0
  -33.4760   10.9530    8.1730 O   0  0  0  0  0  0  0  0  0  0  0  0
  -33.7330    8.1660    7.6600 N   0  0  0  0  0  0  0  0  0  0  0  0
  -32.8560    6.1660    7.8880 O   0  0  0  0  0  0  0  0  0  0  0  0
  -29.9710   10.4730    7.5000 O   0  0  0  0  0  0  0  0  0  0  0  0
  -25.6100    9.6020    6.0130 N   0  0  0  0  0  0  0  0  0  0  0  0
  -28.9400   12.1200    6.0650 C   0  0  0  0  0  0  0  0  0  0  0  0
  -31.3220    8.4820    6.7080 C   0  0  0  0  0  0  0  0  0  0  0  0
  -27.4250    8.8560    7.0000 C   0  0  0  0  0  0  0  0  0  0  0  0
  -28.3090    7.9010    7.6600 C   0  0  0  0  0  0  0  0  0  0  0  0
  -32.5650    9.0070    7.3780 C   0  0  0  0  0  0  0  0  0  0  0  0
  -26.1210    8.5950    6.6680 C   0  0  0  0  0  0  0  0  0  0  0  0
  -26.6280   10.5020    5.9290 C   0  0  0  0  0  0  0  0  0  0  0  0
  -27.8170   10.1280    6.5470 C   0  0  0  0  0  0  0  0  0  0  0  0
  -28.8900   10.8980    6.6160 C   0  0  0  0  0  0  0  0  0  0  0  0
  -31.2380   10.8580    7.3520 C   0  0  0  0  0  0  0  0  0  0  0  0
  -27.7440   12.6230    5.3680 C   0  0  0  0  0  0  0  0  0  0  0  0
  -33.8370    6.9450    7.7420 C   0  0  0  0  0  0  0  0  0  0  0  0
  -25.5640    7.3500    6.9840 C   0  0  0  0  0  0  0  0  0  0  0  0
  -35.2300    6.3880    8.0230 C   0  0  0  0  0  0  0  0  0  0  0  0
  -26.4040    6.4300    7.6520 C   0  0  0  0  0  0  0  0  0  0  0  0
  -32.2580   10.2540    8.2150 C   0  0  0  0  0  0  0  0  0  0  0  0
  2 10  1  0
  2 18  1  0
  2  7  1  0
  3 15  4  0
  5 20  1  0
  8 14  1  0
  9 17  4  0
 10 13  1  0
 11 12  1  0
 12  1  1  0
 13  5  1  0
 13 24  1  0
 14 21  2  0
 14 11  1  0
 15  8  2  0
 15 16  4  0
 16 17  4  0
 16 11  2  0
 18  7  1  0
 18 24  1  0
 19  3  4  0
 19  9  4  0
 20  6  2  0
 20 22  1  0
 21 23  1  0
 23  1  2  0
 24  4  1  0
M  END
$$$$

     RDKit          3D

 21 22  0  0  0  0  0  0  0  0999 V2000
  -28.9120   10.8470    6.5450 C   0  0  0  0  0  0  0  0  0  0  0  0
  -27.4850    8.8880    6.9450 C   0  0  0  0  0  0  0  0  0  0  0  0
  -26.1000    8.5830    6.6270 C   0  0  0  0  0  0  0  0  0  0  0  0
  -25.5500    7.3120    6.9950 C   0  0  0  0  0  0  0  0  0  0  0  0
  -28.2950    7.9160    7.6590 C   0  0  0  0  0  0  0  0  0  0  0  0
  -27.7240   10.1490    6.5190 C   0  0  0  0  0  0  0  0  0  0  0  0
  -27.7280    6.7530    8.0010 C   0  0  0  0  0  0  0  0  0  0  0  0
  -32.2760   10.1140    7.9010 C   0  0  0  0  0  0  0  0  0  0  0  0
  -26.4120    6.4680    7.6750 C   0  0  0  0  0  0  0  0  0  0  0  0
  -35.1480    6.2110    7.9820 C   0  0  0  0  0  0  0  0  0  0  0  0
  -33.5000   10.9310    8.1690 O   0  0  0  0  0  0  0  0  0  0  0  0
  -34.0620    6.8600    7.0680 C   0  0  0  0  0  0  0  0  0  0  0  0
  -30.0590   10.3780    7.2320 O   0  0  0  0  0  0  0  0  0  0  0  0
  -32.6550    8.7700    7.1690 C   0  0  0  0  0  0  0  0  0  0  0  0
  -31.3150   10.8150    6.9930 C   0  0  0  0  0  0  0  0  0  0  0  0
  -31.9300    8.1450    6.3300 O   0  0  0  0  0  0  0  0  0  0  0  0
  -27.7840   12.7070    5.3820 C   0  0  0  0  0  0  0  0  0  0  0  0
  -26.6230   10.5830    5.7200 C   0  0  0  0  0  0  0  0  0  0  0  0
  -33.7230    8.2300    7.5630 N   0  0  0  0  0  0  0  0  0  0  0  0
  -26.6020   11.9360    5.3070 C   0  0  0  0  0  0  0  0  0  0  0  0
  -28.8870   12.1620    6.0190 C   0  0  0  0  0  0  0  0  0  0  0  0
  1 13  1  0
  2  5  4  0
  3  2  4  0
  3  4  4  0
  4  9  4  0
  5  7  4  0
  6  1  4  0
  6  2  1  0
  8 11  1  0
  9  7  4  0
 12 19  1  0
 12 10  1  0
 14 19  1  0
 14  8  1  0
 15 13  1  0
 15  8  1  0
 16 14  2  0
 17 21  4  0
 18  6  4  0
 20 17  4  0
 20 18  4  0
 21  1  4  0
M  END
$$$$

     RDKit          3D

 29 32  0  0  0  0  0  0  0  0999 V2000
  -33.5030    6.1650    6.3690 C   0  0  0  0  0  0  0  0  0  0  0  0
  -28.2700    5.4380    8.6420 C   0  0  0  0  0  0  0  0  0  0  0  0
  -25.6350    9.6250    5.9310 N   0  0  0  0  0  0  0  0  0  0  0  0
  -29.6340    5.1970    8.8880 N   0  0  0  0  0  0  0  0  0  0  0  0
  -29.8140   10.2450    7.3120 O   0  0  0  0  0  0  0  0  0  0  0  0
  -26.0740    8.5480    6.6480 C   0  0  0  0  0  0  0  0  0  0  0  0
  -28.9130   12.1540    6.0100 C   0  0  0  0  0  0  0  0  0  0  0  0
  -26.6060   10.6240    5.8510 C   0  0  0  0  0  0  0  0  0  0  0  0
  -26.6320   11.8810    5.3120 C   0  0  0  0  0  0  0  0  0  0  0  0
  -27.4720    4.4370    8.4840 O   0  0  0  0  0  0  0  0  0  0  0  0
  -32.8130    7.2030    5.2330 C   0  0  0  0  0  0  0  0  0  0  0  0
  -27.7560   10.1540    6.5050 C   0  0  0  0  0  0  0  0  0  0  0  0
  -33.7880    6.7790    7.5450 C   0  0  0  0  0  0  0  0  0  0  0  0
  -27.4320    8.8720    6.9780 C   0  0  0  0  0  0  0  0  0  0  0  0
  -31.4060   11.3760    7.4740 C   0  0  0  0  0  0  0  0  0  0  0  0
  -28.2760    7.9350    7.7310 C   0  0  0  0  0  0  0  0  0  0  0  0
  -32.3190   10.4170    7.6920 C   0  0  0  0  0  0  0  0  0  0  0  0
  -31.2640    8.0750    6.9370 C   0  0  0  0  0  0  0  0  0  0  0  0
  -27.6870    6.7540    7.9930 C   0  0  0  0  0  0  0  0  0  0  0  0
  -35.2260    6.3830    8.0650 C   0  0  0  0  0  0  0  0  0  0  0  0
  -32.3480    8.9030    7.5620 C   0  0  0  0  0  0  0  0  0  0  0  0
  -26.3280    6.4980    7.6320 C   0  0  0  0  0  0  0  0  0  0  0  0
  -28.7740   10.7720    6.6040 C   0  0  0  0  0  0  0  0  0  0  0  0
  -30.4180   11.5580    7.2470 C   0  0  0  0  0  0  0  0  0  0  0  0
  -31.5390    7.5810    5.6610 O   0  0  0  0  0  0  0  0  0  0  0  0
  -33.7170    8.2290    7.5840 N   0  0  0  0  0  0  0  0  0  0  0  0
  -27.8050   12.6370    5.3750 C   0  0  0  0  0  0  0  0  0  0  0  0
  -25.5490    7.3950    6.9720 C   0  0  0  0  0  0  0  0  0  0  0  0
  -33.4700   10.9270    8.1470 O   0  0  0  0  0  0  0  0  0  0  0  0
  1 13  1  0
  2  4  1  0
  3  6  1  0
  6 28  1  0
  6 14  1  0
  7 23  4  0
  8  3  2  0
  8 12  4  0
  9 27  4  0
  9  8  4  0
 10  2  2  0
 11 25  1  0
 11  1  1  0
 12 23  4  0
 12 14  2  0
 13 26  1  0
 13 20  1  0
 14 16  1  0
 15 17  2  3
 16 19  2  0
 17 29  1  0
 18 21  1  0
 19  2  1  0
 21 26  1  0
 21 17  1  0
 22 19  1  0
 23  5  1  0
 24  5  1  0
 24 15  1  0
 25 18  1  0
 27  7  4  0
 28 22  2  0
M  END
$$$$

     RDKit          3D

 27 29  0  0  0  0  0  0  0  0999 V2000
  -30.0940   10.3170    7.1760 O   0  0  0  0  0  0  0  0  0  0  0  0
  -27.7120    6.7550    8.0140 C   0  0  0  0  0  0  0  0  0  0  0  0
  -26.6010   10.5560    5.8950 C   0  0  0  0  0  0  0  0  0  0  0  0
  -27.7500   10.1430    6.5180 C   0  0  0  0  0  0  0  0  0  0  0  0
  -33.6900    8.2420    7.6210 N   0  0  0  0  0  0  0  0  0  0  0  0
  -33.9390    6.8220    7.1300 C   0  0  0  0  0  0  0  0  0  0  0  0
  -26.6930    4.2700    8.5360 O   0  0  0  0  0  0  0  0  0  0  0  0
  -25.5960    7.3680    7.0060 C   0  0  0  0  0  0  0  0  0  0  0  0
  -32.5020    9.0370    7.2740 C   0  0  0  0  0  0  0  0  0  0  0  0
  -31.2280    5.7940    8.9880 C   0  0  0  0  0  0  0  0  0  0  0  0
  -28.8880   10.8350    6.5910 C   0  0  0  0  0  0  0  0  0  0  0  0
  -27.4620    8.8100    6.9900 C   0  0  0  0  0  0  0  0  0  0  0  0
  -34.0170    6.6760    5.5860 C   0  0  0  0  0  0  0  0  0  0  0  0
  -32.2670   10.2490    8.1880 C   0  0  0  0  0  0  0  0  0  0  0  0
  -26.6240   11.8850    5.3380 C   0  0  0  0  0  0  0  0  0  0  0  0
  -28.2510    7.9250    7.6560 C   0  0  0  0  0  0  0  0  0  0  0  0
  -26.3520    6.4260    7.7490 C   0  0  0  0  0  0  0  0  0  0  0  0
  -31.7320    6.5780    7.8940 O   0  0  0  0  0  0  0  0  0  0  0  0
  -28.9150   12.1300    6.0110 C   0  0  0  0  0  0  0  0  0  0  0  0
  -32.7230    5.9630    7.1030 C   0  0  0  0  0  0  0  0  0  0  0  0
  -25.8730    5.1030    8.1910 C   0  0  0  0  0  0  0  0  0  0  0  0
  -26.1320    8.5640    6.6560 C   0  0  0  0  0  0  0  0  0  0  0  0
  -35.1000    6.2520    7.9350 C   0  0  0  0  0  0  0  0  0  0  0  0
  -25.5870    9.6280    5.9860 N   0  0  0  0  0  0  0  0  0  0  0  0
  -31.1870   11.1340    7.7220 C   0  0  0  0  0  0  0  0  0  0  0  0
  -27.7280   12.6100    5.3550 C   0  0  0  0  0  0  0  0  0  0  0  0
  -33.5120   10.9160    8.1580 O   0  0  0  0  0  0  0  0  0  0  0  0
  1 25  1  0
  3 24  2  0
  4  3  1  0
  4 11  1  0
  4 12  1  0
  6  5  1  0
  6 23  1  0
  8 17  4  0
  9  5  1  0
  9 14  1  0
 11  1  1  0
 12 16  4  0
 13  6  1  0
 14 27  1  0
 15 26  2  0
 15  3  1  0
 16  2  4  0
 17  2  4  0
 17 21  1  0
 18 10  1  0
 19 11  2  0
 20  6  1  0
 20 18  1  0
 21  7  2  0
 22 12  4  0
 22  8  4  0
 24 22  1  0
 25 14  1  0
 26 19  1  0
M  END
$$$$

     RDKit          3D

 37 41  0  0  0  0  0  0  0  0999 V2000
  -33.6280    5.1620    9.6320 C   0  0  0  0  0  0  0  0  0  0  0  0
  -32.7590    9.1370    6.9630 C   0  0  0  0  0  0  0  0  0  0  0  0
  -34.0110    5.9310    7.1990 C   0  0  0  0  0  0  0  0  0  0  0  0
  -31.0710    5.1180    9.1410 N   0  0  0  0  0  0  0  0  0  0  0  0
  -33.5020   10.9280    8.1590 O   0  0  0  0  0  0  0  0  0  0  0  0
  -28.7970    4.4960    8.6500 N   0  0  0  0  0  0  0  0  0  0  0  0
  -28.2080    7.9450    7.6510 C   0  0  0  0  0  0  0  0  0  0  0  0
  -25.3740   12.3640    4.7080 C   0  0  0  0  0  0  0  0  0  0  0  0
  -32.2410    7.1250    5.9260 O   0  0  0  0  0  0  0  0  0  0  0  0
  -30.9440    6.4120    8.9480 O   0  0  0  0  0  0  0  0  0  0  0  0
  -31.6670    8.1780    6.5670 C   0  0  0  0  0  0  0  0  0  0  0  0
  -32.7470    2.2740   10.0340 O   0  0  0  0  0  0  0  0  0  0  0  0
  -27.7550   12.6590    5.3970 C   0  0  0  0  0  0  0  0  0  0  0  0
  -32.3110    4.5070    9.4230 C   0  0  0  0  0  0  0  0  0  0  0  0
  -27.7480   10.1190    6.4610 C   0  0  0  0  0  0  0  0  0  0  0  0
  -27.6890    6.7560    7.9980 C   0  0  0  0  0  0  0  0  0  0  0  0
  -26.1540    8.5370    6.6450 C   0  0  0  0  0  0  0  0  0  0  0  0
  -28.8820   12.1560    5.9880 C   0  0  0  0  0  0  0  0  0  0  0  0
  -26.5720   10.5880    5.8250 C   0  0  0  0  0  0  0  0  0  0  0  0
  -30.0800    4.1650    9.0740 C   0  0  0  0  0  0  0  0  0  0  0  0
  -35.1710    6.4260    7.9690 C   0  0  0  0  0  0  0  0  0  0  0  0
  -25.6250    9.6000    5.9120 N   0  0  0  0  0  0  0  0  0  0  0  0
  -31.0850   10.9120    7.3100 N   0  0  0  0  0  0  0  0  0  0  0  0
  -25.5310   11.9650    3.3370 O   0  0  0  0  0  0  0  0  0  0  0  0
  -27.4810    8.8810    6.9640 C   0  0  0  0  0  0  0  0  0  0  0  0
  -30.6730    2.9580    9.4970 N   0  0  0  0  0  0  0  0  0  0  0  0
  -26.3920    6.4540    7.6520 C   0  0  0  0  0  0  0  0  0  0  0  0
  -33.7780    6.3180    8.5160 C   0  0  0  0  0  0  0  0  0  0  0  0
  -25.5890    7.3800    6.9950 C   0  0  0  0  0  0  0  0  0  0  0  0
  -26.5980   11.8660    5.3120 C   0  0  0  0  0  0  0  0  0  0  0  0
  -28.6290    5.8370    8.5840 C   0  0  0  0  0  0  0  0  0  0  0  0
  -28.8860   10.8010    6.3710 C   0  0  0  0  0  0  0  0  0  0  0  0
  -30.1240   10.1450    6.6810 O   0  0  0  0  0  0  0  0  0  0  0  0
  -32.3480   10.1990    7.9050 C   0  0  0  0  0  0  0  0  0  0  0  0
  -33.7180    8.2340    7.6130 N   0  0  0  0  0  0  0  0  0  0  0  0
  -32.0230    3.2030    9.6430 C   0  0  0  0  0  0  0  0  0  0  0  0
  -30.4630   11.6000    8.2780 C   0  0  0  0  0  0  0  0  0  0  0  0
  2 35  1  0
  2 34  1  0
  3 21  1  0
  3 28  1  0
  4 14  1  0
  6 20  1  0
  7 16  4  0
  9 11  1  0
 10  4  1  0
 11  2  1  0
 13 18  2  0
 14  1  1  0
 14 36  1  0
 15 25  1  0
 16 31  1  0
 17 25  4  0
 17 29  4  0
 18 32  1  0
 19 22  2  0
 19 15  1  0
 20  4  1  0
 20 26  2  0
 21 28  1  0
 22 17  1  0
 23 34  1  0
 23 37  1  0
 24  8  1  0
 25  7  4  0
 26 36  1  0
 27 16  4  0
 28  1  1  0
 29 27  4  0
 30  8  1  0
 30 13  1  0
 30 19  1  0
 31  6  1  0
 32 15  2  0
 32 33  1  0
 33 23  1  0
 34  5  1  0
 36 12  2  0
M  END
$$$$

     RDKit          3D

 27 31  0  0  0  0  0  0  0  0999 V2000
  -25.5950    5.3170    8.1610 C   0  0  0  0  0  0  0  0  0  0  0  0
  -33.8400    6.1060    5.5040 C   0  0  0  0  0  0  0  0  0  0  0  0
  -28.8440   12.1500    5.9810 C   0  0  0  0  0  0  0  0  0  0  0  0
  -34.1170    6.1790    6.9940 C   0  0  0  0  0  0  0  0  0  0  0  0
  -28.2380    7.9330    7.6920 C   0  0  0  0  0  0  0  0  0  0  0  0
  -35.2010    6.2970    7.9490 C   0  0  0  0  0  0  0  0  0  0  0  0
  -31.4540    8.4500    6.4740 C   0  0  0  0  0  0  0  0  0  0  0  0
  -27.7100   12.6050    5.3800 C   0  0  0  0  0  0  0  0  0  0  0  0
  -33.4990   10.9220    8.1280 O   0  0  0  0  0  0  0  0  0  0  0  0
  -26.8010   10.7270    6.0000 C   0  0  0  0  0  0  0  0  0  0  0  0
  -26.3660    6.4230    7.7110 C   0  0  0  0  0  0  0  0  0  0  0  0
  -25.5590    7.3820    7.0040 C   0  0  0  0  0  0  0  0  0  0  0  0
  -26.1670    8.6280    6.6500 C   0  0  0  0  0  0  0  0  0  0  0  0
  -31.9500    7.2850    6.2670 O   0  0  0  0  0  0  0  0  0  0  0  0
  -27.6780    6.7190    8.0050 C   0  0  0  0  0  0  0  0  0  0  0  0
  -27.8030   10.1710    6.5220 C   0  0  0  0  0  0  0  0  0  0  0  0
  -30.5330    9.1550    6.6080 C   0  0  0  0  0  0  0  0  0  0  0  0
  -25.3860    4.4890    8.6840 N   0  0  0  0  0  0  0  0  0  0  0  0
  -32.3220   10.2470    7.8160 C   0  0  0  0  0  0  0  0  0  0  0  0
  -28.9230   10.8600    6.5210 C   0  0  0  0  0  0  0  0  0  0  0  0
  -26.6000   11.8430    5.3310 C   0  0  0  0  0  0  0  0  0  0  0  0
  -33.3220    7.2000    6.7610 C   0  0  0  0  0  0  0  0  0  0  0  0
  -30.0360   10.2820    7.3100 O   0  0  0  0  0  0  0  0  0  0  0  0
  -27.4350    8.9980    6.9620 C   0  0  0  0  0  0  0  0  0  0  0  0
  -25.8260    9.6830    5.9250 N   0  0  0  0  0  0  0  0  0  0  0  0
  -33.7310    8.2180    7.5790 N   0  0  0  0  0  0  0  0  0  0  0  0
  -32.4540    8.8680    7.6840 C   0  0  0  0  0  0  0  0  0  0  0  0
  1 18  3  0
  2  4  1  0
  3 20  4  0
  4  6  1  0
  5 15  4  0
  7 17  1  0
  7 27  1  0
  8  3  4  0
 10 16  4  0
 11 15  4  0
 11  1  1  0
 12 11  4  0
 13 24  4  0
 13 12  4  0
 14  7  1  0
 14 22  1  0
 16 24  4  0
 17 23  1  0
 19  9  1  0
 20 16  4  0
 20 23  1  0
 21  8  4  0
 21 10  4  0
 22  2  1  0
 22  4  1  0
 22 26  1  0
 24  5  4  0
 25 10  4  0
 25 13  4  0
 26 27  1  0
 27 19  1  0
M  END
$$$$

     RDKit          3D

 24 27  0  0  0  0  0  0  0  0999 V2000
  -28.9190   10.9490    6.5740 C   0  0  0  0  0  0  0  0  0  0  0  0
  -30.0410   10.3570    7.1160 O   0  0  0  0  0  0  0  0  0  0  0  0
  -25.5700    7.3490    7.0110 C   0  0  0  0  0  0  0  0  0  0  0  0
  -26.6000   11.8890    5.3360 C   0  0  0  0  0  0  0  0  0  0  0  0
  -31.6150    7.8800    6.8620 C   0  0  0  0  0  0  0  0  0  0  0  0
  -25.6220    9.6420    5.8720 N   0  0  0  0  0  0  0  0  0  0  0  0
  -35.1420    6.2710    7.9680 C   0  0  0  0  0  0  0  0  0  0  0  0
  -33.9080    6.8620    7.2120 C   0  0  0  0  0  0  0  0  0  0  0  0
  -26.6250   10.6080    5.8440 C   0  0  0  0  0  0  0  0  0  0  0  0
  -32.5810    9.0090    7.1310 C   0  0  0  0  0  0  0  0  0  0  0  0
  -27.4550    8.8690    6.9730 C   0  0  0  0  0  0  0  0  0  0  0  0
  -26.1960    8.5160    6.6090 C   0  0  0  0  0  0  0  0  0  0  0  0
  -33.4930   10.9540    8.1680 O   0  0  0  0  0  0  0  0  0  0  0  0
  -27.7730   10.1270    6.4900 C   0  0  0  0  0  0  0  0  0  0  0  0
  -33.7150    8.2400    7.6000 N   0  0  0  0  0  0  0  0  0  0  0  0
  -33.7350    5.6320    8.1020 C   0  0  0  0  0  0  0  0  0  0  0  0
  -27.6830    6.7160    8.0100 C   0  0  0  0  0  0  0  0  0  0  0  0
  -27.7260   12.6620    5.3370 C   0  0  0  0  0  0  0  0  0  0  0  0
  -31.1840   10.7400    6.2830 C   0  0  0  0  0  0  0  0  0  0  0  0
  -32.3070   10.1940    8.1190 C   0  0  0  0  0  0  0  0  0  0  0  0
  -28.8980   12.1230    5.9920 C   0  0  0  0  0  0  0  0  0  0  0  0
  -28.2530    7.9320    7.6770 C   0  0  0  0  0  0  0  0  0  0  0  0
  -26.4040    6.4190    7.6830 C   0  0  0  0  0  0  0  0  0  0  0  0
  -31.1920   11.0640    7.5910 C   0  0  0  0  0  0  0  0  0  0  0  0
  1  2  1  0
  2 24  1  0
  3 23  1  0
  4 18  4  0
  4  9  4  0
  6 12  1  0
  7 16  1  0
  8 15  1  0
  8  7  1  0
  8 16  1  0
  9  6  2  0
  9 14  4  0
 10  5  1  0
 10 15  1  0
 10 20  1  0
 11 22  1  0
 12 11  1  0
 12  3  2  0
 14  1  4  0
 14 11  2  0
 18 21  4  0
 20 13  1  0
 21  1  4  0
 22 17  2  0
 23 17  1  0
 24 19  1  0
 24 20  1  0
M  END
$$$$

     RDKit          3D

 21 23  0  0  0  0  0  0  0  0999 V2000
  -32.4650    8.9000    7.2860 C   0  0  0  0  0  0  0  0  0  0  0  0
  -33.6720    8.2920    7.6190 N   0  0  0  0  0  0  0  0  0  0  0  0
  -33.8300    6.8680    7.2270 C   0  0  0  0  0  0  0  0  0  0  0  0
  -28.9160   12.1480    6.0230 C   0  0  0  0  0  0  0  0  0  0  0  0
  -30.0780   10.3340    7.1680 O   0  0  0  0  0  0  0  0  0  0  0  0
  -25.5580    7.3920    6.9850 C   0  0  0  0  0  0  0  0  0  0  0  0
  -28.9690   10.8560    6.5480 C   0  0  0  0  0  0  0  0  0  0  0  0
  -26.3660    6.4290    7.6440 C   0  0  0  0  0  0  0  0  0  0  0  0
  -25.6130    9.6650    5.9510 N   0  0  0  0  0  0  0  0  0  0  0  0
  -27.6710    6.7400    7.9840 C   0  0  0  0  0  0  0  0  0  0  0  0
  -28.2800    7.9370    7.6640 C   0  0  0  0  0  0  0  0  0  0  0  0
  -27.5020    8.8720    6.9480 C   0  0  0  0  0  0  0  0  0  0  0  0
  -26.1480    8.5770    6.6860 C   0  0  0  0  0  0  0  0  0  0  0  0
  -27.7710   12.6420    5.3620 C   0  0  0  0  0  0  0  0  0  0  0  0
  -33.4590   10.9110    8.1480 O   0  0  0  0  0  0  0  0  0  0  0  0
  -32.2710   10.2060    8.1050 C   0  0  0  0  0  0  0  0  0  0  0  0
  -27.7450   10.1100    6.5220 C   0  0  0  0  0  0  0  0  0  0  0  0
  -26.6230   11.8480    5.3310 C   0  0  0  0  0  0  0  0  0  0  0  0
  -31.2840   11.1270    7.3300 C   0  0  0  0  0  0  0  0  0  0  0  0
  -35.1220    6.2650    7.9090 C   0  0  0  0  0  0  0  0  0  0  0  0
  -26.5970   10.6260    5.9160 C   0  0  0  0  0  0  0  0  0  0  0  0
  1  2  1  0
  1 16  1  0
  3  2  1  0
  3 20  1  0
  4  7  1  0
  5 19  1  0
  6  8  4  0
  7  5  1  0
  8 10  4  0
  9 13  2  0
 11 10  4  0
 12 11  4  0
 13 12  4  0
 13  6  4  0
 14  4  2  0
 16 15  1  0
 17  7  1  0
 17 12  2  0
 18 14  1  0
 18 21  2  0
 19 16  1  0
 21  9  1  0
 21 17  1  0
M  END
$$$$

     RDKit          3D

 29 34  0  0  0  0  0  0  0  0999 V2000
  -25.6490    4.0520    8.5840 N   0  0  0  0  0  0  0  0  0  0  0  0
  -32.1100   10.6610    8.2130 C   0  0  0  0  0  0  0  0  0  0  0  0
  -25.6560    7.2520    7.0350 C   0  0  0  0  0  0  0  0  0  0  0  0
  -25.9920    5.1310    8.2070 C   0  0  0  0  0  0  0  0  0  0  0  0
  -33.9890    5.6590    6.8340 C   0  0  0  0  0  0  0  0  0  0  0  0
  -27.6460   10.1130    6.4520 C   0  0  0  0  0  0  0  0  0  0  0  0
  -26.1110    8.4510    6.6780 C   0  0  0  0  0  0  0  0  0  0  0  0
  -26.5400   10.6790    5.8380 C   0  0  0  0  0  0  0  0  0  0  0  0
  -32.5080    8.4460    6.8250 C   0  0  0  0  0  0  0  0  0  0  0  0
  -26.6920   11.8910    5.3300 C   0  0  0  0  0  0  0  0  0  0  0  0
  -28.9510   12.0960    6.0340 C   0  0  0  0  0  0  0  0  0  0  0  0
  -25.3330   10.1840    5.7760 N   0  0  0  0  0  0  0  0  0  0  0  0
  -26.4550    6.3980    7.7490 C   0  0  0  0  0  0  0  0  0  0  0  0
  -28.2940    7.9390    7.6280 C   0  0  0  0  0  0  0  0  0  0  0  0
  -31.3700   11.3070    7.2790 C   0  0  0  0  0  0  0  0  0  0  0  0
  -34.2520    6.9880    7.2570 C   0  0  0  0  0  0  0  0  0  0  0  0
  -30.1290   10.2510    7.0350 O   0  0  0  0  0  0  0  0  0  0  0  0
  -27.7880    6.7220    8.0270 C   0  0  0  0  0  0  0  0  0  0  0  0
  -27.4560    8.8630    6.9630 C   0  0  0  0  0  0  0  0  0  0  0  0
  -31.7430    9.4470    7.4600 C   0  0  0  0  0  0  0  0  0  0  0  0
  -25.0800    9.1630    6.1960 C   0  0  0  0  0  0  0  0  0  0  0  0
  -34.7860    4.1160    8.5430 C   0  0  0  0  0  0  0  0  0  0  0  0
  -35.1930    6.3690    7.9740 C   0  0  0  0  0  0  0  0  0  0  0  0
  -27.8830   12.6170    5.3660 C   0  0  0  0  0  0  0  0  0  0  0  0
  -33.6830    8.2440    7.5860 N   0  0  0  0  0  0  0  0  0  0  0  0
  -34.3380    4.2990    7.1950 C   0  0  0  0  0  0  0  0  0  0  0  0
  -33.5070   10.9670    8.1960 O   0  0  0  0  0  0  0  0  0  0  0  0
  -28.9190   10.7780    6.6240 C   0  0  0  0  0  0  0  0  0  0  0  0
  -35.2540    5.4330    8.8900 C   0  0  0  0  0  0  0  0  0  0  0  0
  2 27  1  0
  3 13  4  0
  4  1  3  0
  5 26  1  0
  5 16  1  0
  5 23  1  0
  6 28  4  0
  6 19  4  0
  7 19  4  0
  7  3  4  0
  8  6  4  0
  9 25  1  0
 10 24  4  0
 10  8  4  0
 11 28  4  0
 12  8  4  0
 12 21  4  0
 13 18  4  0
 13  4  1  0
 14 18  4  0
 15 17  1  0
 15 20  1  0
 15  2  1  0
 16 25  1  0
 16 23  1  0
 19 14  4  0
 20  9  1  0
 20  2  1  0
 21  7  4  0
 22 29  1  0
 23 29  1  0
 24 11  4  0
 26 22  1  0
 28 17  1  0
M  END
$$$$

     RDKit          3D

 27 29  0  0  0  0  0  0  0  0999 V2000
  -31.4340   10.9920    7.0300 C   0  0  0  0  0  0  0  0  0  0  0  0
  -26.7650   10.8090    5.9190 C   0  0  0  0  0  0  0  0  0  0  0  0
  -33.7060    8.2850    7.6050 N   0  0  0  0  0  0  0  0  0  0  0  0
  -33.3530    6.1520    6.6170 C   0  0  0  0  0  0  0  0  0  0  0  0
  -35.2100    6.2960    7.9890 C   0  0  0  0  0  0  0  0  0  0  0  0
  -27.7860   12.6270    5.3890 C   0  0  0  0  0  0  0  0  0  0  0  0
  -28.3050    7.9970    7.6040 C   0  0  0  0  0  0  0  0  0  0  0  0
  -27.8390    8.9380    6.8330 C   0  0  0  0  0  0  0  0  0  0  0  0
  -34.6530    5.1400    7.1190 C   0  0  0  0  0  0  0  0  0  0  0  0
  -26.3250    8.6680    6.7010 C   0  0  0  0  0  0  0  0  0  0  0  0
  -30.1350   10.2950    6.9410 N   0  0  0  0  0  0  0  0  0  0  0  0
  -32.2730   10.2460    7.9430 C   0  0  0  0  0  0  0  0  0  0  0  0
  -28.8970   12.1560    5.9660 C   0  0  0  0  0  0  0  0  0  0  0  0
  -26.6410   11.9090    5.3600 C   0  0  0  0  0  0  0  0  0  0  0  0
  -27.9030   10.2710    6.4770 C   0  0  0  0  0  0  0  0  0  0  0  0
  -25.9800    9.8160    5.9340 N   0  0  0  0  0  0  0  0  0  0  0  0
  -26.3840    6.4730    7.6800 C   0  0  0  0  0  0  0  0  0  0  0  0
  -34.0580    5.0630    6.0400 O   0  0  0  0  0  0  0  0  0  0  0  0
  -28.0900    9.2210    7.0240 C   0  0  0  0  0  0  0  0  0  0  0  0
  -33.7330    7.4370    6.6000 C   0  0  0  0  0  0  0  0  0  0  0  0
  -25.5630    7.3620    6.9870 C   0  0  0  0  0  0  0  0  0  0  0  0
  -29.0820   10.8610    6.5180 C   0  0  0  0  0  0  0  0  0  0  0  0
  -32.6660    8.9480    7.4860 C   0  0  0  0  0  0  0  0  0  0  0  0
  -33.4670   10.9530    8.1950 O   0  0  0  0  0  0  0  0  0  0  0  0
  -30.9440    7.9410    7.4480 O   0  0  0  0  0  0  0  0  0  0  0  0
  -30.2020    9.0750    7.2530 C   0  0  0  0  0  0  0  0  0  0  0  0
  -27.7220    6.7680    8.0350 C   0  0  0  0  0  0  0  0  0  0  0  0
  1 12  1  0
  2 16  1  0
  2 15  4  0
  4 20  1  0
  4  9  1  0
  6 13  4  0
  8 19  1  0
  8  7  1  0
  9  5  1  0
 10  8  1  0
 10 21  1  0
 11  1  1  0
 11 26  1  0
 12 24  1  0
 13 22  4  0
 14  6  4  0
 14  2  4  0
 15 22  4  0
 15 19  1  0
 16 10  1  0
 17 27  1  0
 18  4  1  0
 18  9  1  0
 20  3  1  0
 21 17  1  0
 22 11  1  0
 23  3  1  0
 23 12  1  0
 26 25  1  0
M  END
$$$$

     RDKit          3D

 37 41  0  0  0  0  0  0  0  0999 V2000
  -33.4760    5.1680    8.4700 C   0  0  0  0  0  0  0  0  0  0  0  0
  -31.5110    9.3400    6.1440 C   0  0  0  0  0  0  0  0  0  0  0  0
  -33.6590    5.4640    5.7270 F   0  0  0  0  0  0  0  0  0  0  0  0
  -35.1810    6.3930    7.9890 C   0  0  0  0  0  0  0  0  0  0  0  0
  -24.6320    4.9730    8.3720 N   0  0  0  0  0  0  0  0  0  0  0  0
  -30.3420   10.0560    6.7340 O   0  0  0  0  0  0  0  0  0  0  0  0
  -26.1540    8.6980    6.8710 C   0  0  0  0  0  0  0  0  0  0  0  0
  -25.8590    5.2650    8.1490 C   0  0  0  0  0  0  0  0  0  0  0  0
  -32.3790    8.7850    7.2840 C   0  0  0  0  0  0  0  0  0  0  0  0
  -30.9840   10.7390    7.7900 C   0  0  0  0  0  0  0  0  0  0  0  0
  -26.3590    6.4740    7.6630 C   0  0  0  0  0  0  0  0  0  0  0  0
  -27.8330   10.1560    6.5820 C   0  0  0  0  0  0  0  0  0  0  0  0
  -26.6220   11.8790    5.3360 C   0  0  0  0  0  0  0  0  0  0  0  0
  -34.8310    4.9490    7.8800 C   0  0  0  0  0  0  0  0  0  0  0  0
  -27.7850   12.6560    5.3840 C   0  0  0  0  0  0  0  0  0  0  0  0
  -24.5460   10.4370    7.2790 O   0  0  0  0  0  0  0  0  0  0  0  0
  -27.7490    6.7290    8.0110 C   0  0  0  0  0  0  0  0  0  0  0  0
  -27.4940    8.8690    7.0180 C   0  0  0  0  0  0  0  0  0  0  0  0
  -34.1330    6.9800    7.1940 C   0  0  0  0  0  0  0  0  0  0  0  0
  -28.9360   12.1240    6.0090 C   0  0  0  0  0  0  0  0  0  0  0  0
  -23.3110    8.4360    6.6100 O   0  0  0  0  0  0  0  0  0  0  0  0
  -33.7540    8.2380    7.5550 N   0  0  0  0  0  0  0  0  0  0  0  0
  -25.6140    9.9490    6.6720 N   0  0  0  0  0  0  0  0  0  0  0  0
  -32.2970   10.1400    8.1050 C   0  0  0  0  0  0  0  0  0  0  0  0
  -31.3210   11.9920    7.3230 O   0  0  0  0  0  0  0  0  0  0  0  0
  -25.6390    7.4830    6.9590 C   0  0  0  0  0  0  0  0  0  0  0  0
  -31.8440    7.3480    7.4250 C   0  0  0  0  0  0  0  0  0  0  0  0
  -26.6640   10.7260    6.1250 C   0  0  0  0  0  0  0  0  0  0  0  0
  -32.9100    6.2220    7.4870 C   0  0  0  0  0  0  0  0  0  0  0  0
  -29.0330   10.8110    6.4410 C   0  0  0  0  0  0  0  0  0  0  0  0
  -26.0250    3.3030    9.1750 C   0  0  0  0  0  0  0  0  0  0  0  0
  -28.2620    7.9420    7.6640 C   0  0  0  0  0  0  0  0  0  0  0  0
  -26.7600    4.3390    8.5300 O   0  0  0  0  0  0  0  0  0  0  0  0
  -34.9290    4.2620    6.5910 F   0  0  0  0  0  0  0  0  0  0  0  0
  -33.4120   10.9620    8.1870 O   0  0  0  0  0  0  0  0  0  0  0  0
  -24.1810    7.4030    6.4160 C   0  0  0  0  0  0  0  0  0  0  0  0
  -24.6920    3.7180    9.0200 C   0  0  0  0  0  0  0  0  0  0  0  0
  2  6  1  0
  5 37  4  0
  6 10  1  0
  7 26  4  0
  7 18  4  0
  8  5  4  0
  8 33  4  0
  9  2  1  0
  9 27  1  0
  9 22  1  0
  9 24  1  0
 10 25  1  0
 10 24  1  0
 11 17  4  0
 11  8  1  0
 12 18  4  0
 13 15  1  0
 13 28  1  0
 14 34  1  0
 14  4  1  0
 14  1  1  0
 15 20  2  0
 18 32  4  0
 19 29  1  0
 19 22  1  0
 19  4  1  0
 20 30  1  0
 23  7  4  0
 23 16  1  0
 24 35  1  0
 26 11  4  0
 28 12  4  0
 28 23  4  0
 29 27  1  0
 29  1  1  0
 30 12  1  0
 32 17  4  0
 33 31  4  0
 36 21  1  0
 36 26  1  0
 37 31  4  0
M  END
$$$$

     RDKit          3D

 27 29  0  0  0  0  0  0  0  0999 V2000
  -33.9040    6.7960    7.2940 C   0  0  0  0  0  0  0  0  0  0  0  0
  -33.7700    4.4640    8.3110 O   0  0  0  0  0  0  0  0  0  0  0  0
  -31.3740    8.1570    7.0680 C   0  0  0  0  0  0  0  0  0  0  0  0
  -27.7560   10.1340    6.4530 C   0  0  0  0  0  0  0  0  0  0  0  0
  -26.1000    8.5740    6.5800 C   0  0  0  0  0  0  0  0  0  0  0  0
  -30.0860   10.2760    7.0310 O   0  0  0  0  0  0  0  0  0  0  0  0
  -33.4870   10.9720    8.1960 O   0  0  0  0  0  0  0  0  0  0  0  0
  -32.5630    9.0290    7.1550 C   0  0  0  0  0  0  0  0  0  0  0  0
  -25.8430    5.2800    8.1960 C   0  0  0  0  0  0  0  0  0  0  0  0
  -27.7040    6.7460    8.0140 C   0  0  0  0  0  0  0  0  0  0  0  0
  -27.4970    8.8650    6.9550 C   0  0  0  0  0  0  0  0  0  0  0  0
  -25.5460    7.3760    6.9910 C   0  0  0  0  0  0  0  0  0  0  0  0
  -31.2540   11.0600    7.3180 C   0  0  0  0  0  0  0  0  0  0  0  0
  -34.9160    4.9050    8.5280 C   0  0  0  0  0  0  0  0  0  0  0  0
  -25.3090    4.3310    8.6650 N   0  0  0  0  0  0  0  0  0  0  0  0
  -28.9550   10.8740    6.5720 C   0  0  0  0  0  0  0  0  0  0  0  0
  -32.2590   10.2220    8.0570 C   0  0  0  0  0  0  0  0  0  0  0  0
  -26.3940    6.5010    7.7130 C   0  0  0  0  0  0  0  0  0  0  0  0
  -26.5940   10.6680    5.8390 C   0  0  0  0  0  0  0  0  0  0  0  0
  -28.2690    7.9230    7.6460 C   0  0  0  0  0  0  0  0  0  0  0  0
  -27.8020   12.6570    5.3820 C   0  0  0  0  0  0  0  0  0  0  0  0
  -25.6390    9.6630    5.8140 N   0  0  0  0  0  0  0  0  0  0  0  0
  -33.7180    8.2530    7.5840 N   0  0  0  0  0  0  0  0  0  0  0  0
  -35.7870    4.2140    8.9240 O   0  0  0  0  0  0  0  0  0  0  0  0
  -35.1480    6.3640    7.9740 C   0  0  0  0  0  0  0  0  0  0  0  0
  -26.6340   11.8970    5.3280 C   0  0  0  0  0  0  0  0  0  0  0  0
  -28.9090   12.1470    6.0250 C   0  0  0  0  0  0  0  0  0  0  0  0
  1 23  1  0
  1 25  1  0
  2 14  2  0
  4 16  1  0
  4 11  2  0
  5 11  4  0
  5 12  4  0
  6 13  1  0
  8  3  1  0
  8 23  1  0
  8 17  1  0
  9 15  3  0
 11 20  4  0
 12 18  4  0
 13 17  1  0
 14 24  1  0
 16  6  1  0
 17  7  1  0
 18 10  4  0
 18  9  1  0
 19 26  1  0
 19  4  1  0
 20 10  4  0
 21 27  1  0
 22 19  1  0
 22  5  2  0
 25 14  1  0
 26 21  2  0
 27 16  2  0
M  END
$$$$

     RDKit          3D

 24 26  0  0  0  0  0  0  0  0999 V2000
  -32.6690    6.0940    8.1190 C   0  0  0  0  0  0  0  0  0  0  0  0
  -28.8990   12.1250    6.0140 C   0  0  0  0  0  0  0  0  0  0  0  0
  -27.7290    6.7180    8.0010 C   0  0  0  0  0  0  0  0  0  0  0  0
  -26.5850   11.8630    5.3390 C   0  0  0  0  0  0  0  0  0  0  0  0
  -27.7420   10.0990    6.5090 C   0  0  0  0  0  0  0  0  0  0  0  0
  -31.1300   10.5350    7.0610 C   0  0  0  0  0  0  0  0  0  0  0  0
  -24.4040    9.6860    5.7360 O   0  0  0  0  0  0  0  0  0  0  0  0
  -29.9740   10.3720    7.3350 O   0  0  0  0  0  0  0  0  0  0  0  0
  -27.4610    8.8950    7.0280 C   0  0  0  0  0  0  0  0  0  0  0  0
  -32.4100    8.8690    7.3170 C   0  0  0  0  0  0  0  0  0  0  0  0
  -35.1770    6.3390    7.9720 C   0  0  0  0  0  0  0  0  0  0  0  0
  -27.7850   12.6770    5.3890 C   0  0  0  0  0  0  0  0  0  0  0  0
  -33.4410   10.9600    8.1820 O   0  0  0  0  0  0  0  0  0  0  0  0
  -32.2170    8.2750    5.9860 C   0  0  0  0  0  0  0  0  0  0  0  0
  -28.3120    7.9560    7.6360 C   0  0  0  0  0  0  0  0  0  0  0  0
  -25.6130    7.3670    6.9990 C   0  0  0  0  0  0  0  0  0  0  0  0
  -33.8010    6.8180    7.4980 C   0  0  0  0  0  0  0  0  0  0  0  0
  -32.2350   10.2190    7.9910 C   0  0  0  0  0  0  0  0  0  0  0  0
  -26.6090   10.6150    5.9230 C   0  0  0  0  0  0  0  0  0  0  0  0
  -28.9120   10.8700    6.5940 C   0  0  0  0  0  0  0  0  0  0  0  0
  -33.7280    8.2950    7.5990 N   0  0  0  0  0  0  0  0  0  0  0  0
  -26.1500    8.5780    6.6650 C   0  0  0  0  0  0  0  0  0  0  0  0
  -25.5900    9.6670    6.0010 N   0  0  0  0  0  0  0  0  0  0  0  0
  -26.3970    6.4210    7.7000 C   0  0  0  0  0  0  0  0  0  0  0  0
  2 20  4  0
  4 12  4  0
  4 19  4  0
  5 20  4  0
  5  9  4  0
  6  8  1  0
  6 18  1  0
  7 23  1  0
  9 15  4  0
 10 14  1  0
 10 21  1  0
 10 18  1  0
 12  2  4  0
 15  3  4  0
 16 24  4  0
 17 21  1  0
 17 11  1  0
 17  1  1  0
 18 13  1  0
 19 23  4  0
 19  5  4  0
 20  8  1  0
 22 16  4  0
 22  9  4  0
 23 22  4  0
 24  3  4  0
M  END
$$$$

     RDKit          3D

 21 23  0  0  0  0  0  0  0  0999 V2000
  -31.2760   11.0200    7.2930 C   0  0  0  0  0  0  0  0  0  0  0  0
  -33.4580   10.9460    8.2100 O   0  0  0  0  0  0  0  0  0  0  0  0
  -28.9490   12.1510    5.9740 C   0  0  0  0  0  0  0  0  0  0  0  0
  -32.2770   10.2050    8.0390 C   0  0  0  0  0  0  0  0  0  0  0  0
  -26.5840   11.8460    5.3450 C   0  0  0  0  0  0  0  0  0  0  0  0
  -33.8350    6.8380    7.3490 C   0  0  0  0  0  0  0  0  0  0  0  0
  -28.9140   10.8490    6.5650 C   0  0  0  0  0  0  0  0  0  0  0  0
  -25.6470    9.6550    5.9670 N   0  0  0  0  0  0  0  0  0  0  0  0
  -35.1000    6.2720    7.9590 C   0  0  0  0  0  0  0  0  0  0  0  0
  -27.7700   12.6250    5.4210 C   0  0  0  0  0  0  0  0  0  0  0  0
  -25.6070    7.4000    6.9760 C   0  0  0  0  0  0  0  0  0  0  0  0
  -26.6310   10.5820    5.8730 C   0  0  0  0  0  0  0  0  0  0  0  0
  -27.7210    6.7060    7.9920 C   0  0  0  0  0  0  0  0  0  0  0  0
  -26.3850    6.4410    7.6890 C   0  0  0  0  0  0  0  0  0  0  0  0
  -32.4840    8.8690    7.2380 C   0  0  0  0  0  0  0  0  0  0  0  0
  -33.7360    8.2760    7.6210 N   0  0  0  0  0  0  0  0  0  0  0  0
  -26.1010    8.5770    6.6510 C   0  0  0  0  0  0  0  0  0  0  0  0
  -28.2980    7.9180    7.6920 C   0  0  0  0  0  0  0  0  0  0  0  0
  -27.4960    8.8590    6.9460 C   0  0  0  0  0  0  0  0  0  0  0  0
  -30.0190   10.3740    7.1700 O   0  0  0  0  0  0  0  0  0  0  0  0
  -27.7520   10.1040    6.5470 C   0  0  0  0  0  0  0  0  0  0  0  0
  1  4  1  0
  3  7  1  0
  4  2  1  0
  5 10  1  0
  5 12  2  0
  6 16  1  0
  6  9  1  0
  7 20  1  0
  8 17  2  0
 10  3  2  0
 11 14  4  0
 12  8  1  0
 12 21  1  0
 14 13  4  0
 15 16  1  0
 15  4  1  0
 17 19  4  0
 17 11  4  0
 18 13  4  0
 19 18  4  0
 20  1  1  0
 21  7  1  0
 21 19  2  0
M  END
$$$$

     RDKit          3D

 29 34  0  0  0  0  0  0  0  0999 V2000
  -33.4680   10.9750    8.2000 O   0  0  0  0  0  0  0  0  0  0  0  0
  -25.5930    7.3890    7.0210 C   0  0  0  0  0  0  0  0  0  0  0  0
  -33.7020    8.2740    7.6140 N   0  0  0  0  0  0  0  0  0  0  0  0
  -27.4780    8.7980    6.9640 C   0  0  0  0  0  0  0  0  0  0  0  0
  -31.9480    8.9400    6.3540 C   0  0  0  0  0  0  0  0  0  0  0  0
  -27.6740    6.7370    8.0080 C   0  0  0  0  0  0  0  0  0  0  0  0
  -27.7490   10.1530    6.4910 C   0  0  0  0  0  0  0  0  0  0  0  0
  -28.9240   10.8870    6.5720 C   0  0  0  0  0  0  0  0  0  0  0  0
  -32.7060    7.7110    6.7640 C   0  0  0  0  0  0  0  0  0  0  0  0
  -30.1630   10.3010    7.0860 C   0  0  0  0  0  0  0  0  0  0  0  0
  -32.1180   10.4910    8.2600 C   0  0  0  0  0  0  0  0  0  0  0  0
  -25.2240    4.3580    8.6500 N   0  0  0  0  0  0  0  0  0  0  0  0
  -35.1870    6.3340    8.0240 C   0  0  0  0  0  0  0  0  0  0  0  0
  -30.5780    9.0900    6.3850 O   0  0  0  0  0  0  0  0  0  0  0  0
  -33.0010    5.3180    7.6140 C   0  0  0  0  0  0  0  0  0  0  0  0
  -25.7720    5.2740    8.2240 C   0  0  0  0  0  0  0  0  0  0  0  0
  -26.1560    8.5460    6.6380 C   0  0  0  0  0  0  0  0  0  0  0  0
  -28.8990   12.1900    6.0290 C   0  0  0  0  0  0  0  0  0  0  0  0
  -26.6050   11.9350    5.3600 C   0  0  0  0  0  0  0  0  0  0  0  0
  -25.6160    9.6500    6.0030 N   0  0  0  0  0  0  0  0  0  0  0  0
  -26.3970    6.4580    7.7090 C   0  0  0  0  0  0  0  0  0  0  0  0
  -33.3210    4.9790    8.9890 O   0  0  0  0  0  0  0  0  0  0  0  0
  -32.4380    8.9970    7.8470 C   0  0  0  0  0  0  0  0  0  0  0  0
  -26.6080   10.6110    5.8570 C   0  0  0  0  0  0  0  0  0  0  0  0
  -34.2760    5.8380    6.9000 C   0  0  0  0  0  0  0  0  0  0  0  0
  -31.1660   11.1670    7.3760 O   0  0  0  0  0  0  0  0  0  0  0  0
  -28.2990    7.9330    7.6550 C   0  0  0  0  0  0  0  0  0  0  0  0
  -33.6860    6.7590    5.9180 C   0  0  0  0  0  0  0  0  0  0  0  0
  -27.7650   12.6680    5.3990 C   0  0  0  0  0  0  0  0  0  0  0  0
  2 21  1  0
  4 27  1  0
  5 14  1  0
  5  9  1  0
  5 23  1  0
  7  8  4  0
  7  4  2  0
  9 28  1  0
  9  3  1  0
  9 23  1  0
 10  8  1  0
 10 26  1  0
 11  1  1  0
 14 10  1  0
 15 22  1  0
 16 12  3  0
 17  4  1  0
 17  2  2  0
 18  8  4  0
 19 29  4  0
 19 24  4  0
 20 17  1  0
 21  6  1  0
 21 16  1  0
 23  3  1  0
 23 11  1  0
 24 20  2  0
 24  7  4  0
 25 15  1  0
 25 13  1  0
 26 11  1  0
 27  6  2  0
 28 25  1  0
 29 18  4  0
M  END
$$$$

     RDKit          3D

 27 31  0  0  0  0  0  0  0  0999 V2000
  -28.8250   10.9020    6.5820 C   0  0  0  0  0  0  0  0  0  0  0  0
  -32.1120    9.8550    6.6610 C   0  0  0  0  0  0  0  0  0  0  0  0
  -26.4130    6.4630    7.6700 C   0  0  0  0  0  0  0  0  0  0  0  0
  -33.7000    8.2170    7.6200 N   0  0  0  0  0  0  0  0  0  0  0  0
  -30.5300    8.2880    7.9370 O   0  0  0  0  0  0  0  0  0  0  0  0
  -25.3430    9.3230    6.0780 N   0  0  0  0  0  0  0  0  0  0  0  0
  -33.8730    6.8000    7.3480 C   0  0  0  0  0  0  0  0  0  0  0  0
  -27.7590   12.6430    5.4200 C   0  0  0  0  0  0  0  0  0  0  0  0
  -26.6020   11.9060    5.3280 C   0  0  0  0  0  0  0  0  0  0  0  0
  -30.7950    7.8710    6.7110 C   0  0  0  0  0  0  0  0  0  0  0  0
  -28.2660    7.9610    7.6590 C   0  0  0  0  0  0  0  0  0  0  0  0
  -32.2790    8.3980    7.0020 C   0  0  0  0  0  0  0  0  0  0  0  0
  -33.4810   10.8950    8.1400 O   0  0  0  0  0  0  0  0  0  0  0  0
  -26.1910    8.5420    6.6720 C   0  0  0  0  0  0  0  0  0  0  0  0
  -34.1400    5.1010    8.7540 C   0  0  0  0  0  0  0  0  0  0  0  0
  -32.2070   10.3120    8.1810 C   0  0  0  0  0  0  0  0  0  0  0  0
  -35.1670    6.3640    7.9500 C   0  0  0  0  0  0  0  0  0  0  0  0
  -25.5950    7.3390    6.9980 C   0  0  0  0  0  0  0  0  0  0  0  0
  -32.9490    5.9280    8.3600 C   0  0  0  0  0  0  0  0  0  0  0  0
  -31.2140   10.7640    7.1560 C   0  0  0  0  0  0  0  0  0  0  0  0
  -27.4200    8.8340    6.9720 C   0  0  0  0  0  0  0  0  0  0  0  0
  -28.9340   12.1210    5.9640 C   0  0  0  0  0  0  0  0  0  0  0  0
  -27.7090    6.7410    7.9700 C   0  0  0  0  0  0  0  0  0  0  0  0
  -25.3890   10.1150    5.6350 N   0  0  0  0  0  0  0  0  0  0  0  0
  -27.7010   10.1610    6.4570 C   0  0  0  0  0  0  0  0  0  0  0  0
  -26.5900   10.6560    5.8510 C   0  0  0  0  0  0  0  0  0  0  0  0
  -29.9330   10.2900    7.1960 O   0  0  0  0  0  0  0  0  0  0  0  0
  1 27  1  0
  2 12  1  0
  2 20  1  0
  2 16  1  0
  3 23  4  0
  6 14  4  0
  7  4  1  0
  7 17  1  0
  7 19  1  0
  8 22  4  0
  9  8  4  0
  9 26  4  0
 10  5  1  0
 11 23  4  0
 12 10  1  0
 12  4  1  0
 14 21  4  0
 14 18  4  0
 16 13  1  0
 17 15  1  0
 18  3  4  0
 19 15  1  0
 20 27  1  0
 20 16  1  0
 21 11  4  0
 22  1  4  0
 24 26  4  0
 24  6  4  0
 25  1  4  0
 25 21  4  0
 26 25  4  0
M  END
$$$$

     RDKit          3D

 37 41  0  0  0  0  0  0  0  0999 V2000
  -32.8270    6.7950    6.2060 C   0  0  0  0  0  0  0  0  0  0  0  0
  -32.0100    9.2930    7.0030 C   0  0  0  0  0  0  0  0  0  0  0  0
  -26.7390   10.6370    5.8320 C   0  0  0  0  0  0  0  0  0  0  0  0
  -26.1030    4.5820    8.8790 O   0  0  0  0  0  0  0  0  0  0  0  0
  -26.2100    8.6700    6.6240 C   0  0  0  0  0  0  0  0  0  0  0  0
  -31.2390   11.3110    7.3460 C   0  0  0  0  0  0  0  0  0  0  0  0
  -33.7470    8.2500    7.6220 N   0  0  0  0  0  0  0  0  0  0  0  0
  -28.8950   12.1350    6.0420 C   0  0  0  0  0  0  0  0  0  0  0  0
  -31.8860    6.8820    5.2050 F   0  0  0  0  0  0  0  0  0  0  0  0
  -28.8690   10.8530    6.5490 C   0  0  0  0  0  0  0  0  0  0  0  0
  -27.7510   10.1610    6.4360 C   0  0  0  0  0  0  0  0  0  0  0  0
  -27.8010   12.6950    5.3510 C   0  0  0  0  0  0  0  0  0  0  0  0
  -33.4800   10.9260    8.1920 O   0  0  0  0  0  0  0  0  0  0  0  0
  -25.6050    7.4500    6.9250 C   0  0  0  0  0  0  0  0  0  0  0  0
  -32.2020   10.3870    8.0690 C   0  0  0  0  0  0  0  0  0  0  0  0
  -24.8640    4.8550    7.1090 F   0  0  0  0  0  0  0  0  0  0  0  0
  -25.7190    9.7450    5.9250 N   0  0  0  0  0  0  0  0  0  0  0  0
  -34.3400    7.0750    6.8710 C   0  0  0  0  0  0  0  0  0  0  0  0
  -34.9270    4.9070    8.4450 C   0  0  0  0  0  0  0  0  0  0  0  0
  -27.5730    8.9250    6.9490 C   0  0  0  0  0  0  0  0  0  0  0  0
  -27.7090    6.7010    8.0130 C   0  0  0  0  0  0  0  0  0  0  0  0
  -32.4300    7.8490    7.2340 C   0  0  0  0  0  0  0  0  0  0  0  0
  -33.8990    4.7810    9.3060 F   0  0  0  0  0  0  0  0  0  0  0  0
  -35.9220    4.4760    9.2150 F   0  0  0  0  0  0  0  0  0  0  0  0
  -35.1800    6.3450    8.0340 C   0  0  0  0  0  0  0  0  0  0  0  0
  -34.6710    4.0890    7.4800 F   0  0  0  0  0  0  0  0  0  0  0  0
  -32.7520    5.4750    6.3210 F   0  0  0  0  0  0  0  0  0  0  0  0
  -26.3640    6.4930    7.6590 C   0  0  0  0  0  0  0  0  0  0  0  0
  -24.1660    7.5690    6.6360 C   0  0  0  0  0  0  0  0  0  0  0  0
  -25.7510    5.2250    7.9160 C   0  0  0  0  0  0  0  0  0  0  0  0
  -28.2790    7.9490    7.6330 C   0  0  0  0  0  0  0  0  0  0  0  0
  -29.9960   10.3940    7.3130 C   0  0  0  0  0  0  0  0  0  0  0  0
  -23.3980    8.0220    7.4280 F   0  0  0  0  0  0  0  0  0  0  0  0
  -26.6230   11.9680    5.3500 C   0  0  0  0  0  0  0  0  0  0  0  0
  -30.6200    9.2640    6.7300 O   0  0  0  0  0  0  0  0  0  0  0  0
  -31.0310   12.4850    7.9760 O   0  0  0  0  0  0  0  0  0  0  0  0
  -23.8510    7.3920    5.4690 F   0  0  0  0  0  0  0  0  0  0  0  0
  1 27  1  0
  1 18  1  0
  1 22  1  0
  2 35  1  0
  2 22  1  0
  2 15  1  0
  3 17  1  0
  3 11  1  0
  5 14  4  0
  5 20  4  0
  6 36  1  0
  6 15  1  0
  9  1  1  0
 10  8  1  0
 10 32  1  0
 11 10  1  0
 11 20  2  0
 12  8  2  0
 14 28  4  0
 15 13  1  0
 16 30  1  0
 17  5  2  0
 18  7  1  0
 18 25  1  0
 19 24  1  0
 19 23  1  0
 20 31  4  0
 22  7  1  0
 25 19  1  0
 26 19  1  0
 28 30  1  0
 28 21  4  0
 29 14  1  0
 29 33  1  0
 30  4  2  0
 31 21  4  0
 32 35  1  0
 32  6  1  0
 34 12  1  0
 34  3  2  0
 37 29  1  0
M  END
$$$$

     RDKit          3D

 27 30  0  0  0  0  0  0  0  0999 V2000
  -30.3280   10.3780    6.9050 N   0  0  0  0  0  0  0  0  0  0  0  0
  -28.2420    7.9330    7.6770 C   0  0  0  0  0  0  0  0  0  0  0  0
  -32.3710    8.9540    7.4760 C   0  0  0  0  0  0  0  0  0  0  0  0
  -33.8630    6.7670    7.3470 C   0  0  0  0  0  0  0  0  0  0  0  0
  -26.5870   11.8540    5.3240 C   0  0  0  0  0  0  0  0  0  0  0  0
  -25.8360    5.2330    8.2440 C   0  0  0  0  0  0  0  0  0  0  0  0
  -32.6430    6.2740    8.0060 O   0  0  0  0  0  0  0  0  0  0  0  0
  -35.1850    6.3380    8.0590 C   0  0  0  0  0  0  0  0  0  0  0  0
  -35.0050    4.8120    7.7930 C   0  0  0  0  0  0  0  0  0  0  0  0
  -26.1390    8.5330    6.5930 C   0  0  0  0  0  0  0  0  0  0  0  0
  -26.6610   10.5540    5.8550 C   0  0  0  0  0  0  0  0  0  0  0  0
  -30.9420    9.0150    6.6880 C   0  0  0  0  0  0  0  0  0  0  0  0
  -33.5070   10.9640    8.1780 O   0  0  0  0  0  0  0  0  0  0  0  0
  -28.9750   10.8480    6.4630 C   0  0  0  0  0  0  0  0  0  0  0  0
  -27.8320   10.0950    6.5680 C   0  0  0  0  0  0  0  0  0  0  0  0
  -33.8310    6.3150    5.8240 C   0  0  0  0  0  0  0  0  0  0  0  0
  -32.2100   10.2860    8.1520 C   0  0  0  0  0  0  0  0  0  0  0  0
  -26.4120    6.3670    7.7130 C   0  0  0  0  0  0  0  0  0  0  0  0
  -27.7140    6.7390    8.0640 C   0  0  0  0  0  0  0  0  0  0  0  0
  -25.2030    4.3110    8.5900 N   0  0  0  0  0  0  0  0  0  0  0  0
  -25.6290    9.5740    5.9600 N   0  0  0  0  0  0  0  0  0  0  0  0
  -27.7380   12.6430    5.3700 C   0  0  0  0  0  0  0  0  0  0  0  0
  -25.5520    7.3330    6.9830 C   0  0  0  0  0  0  0  0  0  0  0  0
  -27.5010    8.8730    6.9470 C   0  0  0  0  0  0  0  0  0  0  0  0
  -28.9330   12.1400    6.0020 C   0  0  0  0  0  0  0  0  0  0  0  0
  -33.7070    8.2780    7.6280 N   0  0  0  0  0  0  0  0  0  0  0  0
  -31.3270   11.2560    7.5680 C   0  0  0  0  0  0  0  0  0  0  0  0
  1 27  1  0
  2 19  4  0
  3 26  1  0
  3 17  1  0
  4 16  1  0
  4 26  1  0
  4  7  1  0
  4  8  1  0
  5 22  1  0
  5 11  1  0
  6 20  3  0
  9  8  1  0
 10 24  4  0
 10 23  4  0
 11 21  2  0
 11 15  1  0
 12  1  1  0
 12  3  1  0
 14 15  2  0
 14  1  1  0
 15 24  1  0
 17 13  1  0
 18 19  4  0
 18  6  1  0
 21 10  1  0
 22 25  2  0
 23 18  4  0
 24  2  4  0
 25 14  1  0
 27 17  1  0
M  END
$$$$

     RDKit          3D

 24 26  0  0  0  0  0  0  0  0999 V2000
  -35.1630    6.3010    7.9670 C   0  0  0  0  0  0  0  0  0  0  0  0
  -33.4650   10.9770    8.1830 O   0  0  0  0  0  0  0  0  0  0  0  0
  -26.4030    6.4740    7.6540 C   0  0  0  0  0  0  0  0  0  0  0  0
  -26.1200    8.6160    6.6800 C   0  0  0  0  0  0  0  0  0  0  0  0
  -28.2710    7.9490    7.6700 C   0  0  0  0  0  0  0  0  0  0  0  0
  -25.5010   10.1440    5.5990 O   0  0  0  0  0  0  0  0  0  0  0  0
  -27.7190    6.7240    8.0270 C   0  0  0  0  0  0  0  0  0  0  0  0
  -27.7990   12.5860    5.3630 C   0  0  0  0  0  0  0  0  0  0  0  0
  -25.3400    9.5560    6.2160 C   0  0  0  0  0  0  0  0  0  0  0  0
  -30.0800    9.9720    6.9920 O   0  0  0  0  0  0  0  0  0  0  0  0
  -32.3580    9.0220    7.4000 C   0  0  0  0  0  0  0  0  0  0  0  0
  -28.8900   10.7840    6.4830 C   0  0  0  0  0  0  0  0  0  0  0  0
  -34.8180    4.9090    8.2800 C   0  0  0  0  0  0  0  0  0  0  0  0
  -27.6770   10.1400    6.4650 C   0  0  0  0  0  0  0  0  0  0  0  0
  -27.4310    8.8290    6.9460 C   0  0  0  0  0  0  0  0  0  0  0  0
  -26.7210   11.8820    5.3370 C   0  0  0  0  0  0  0  0  0  0  0  0
  -26.6250   10.6770    5.8230 C   0  0  0  0  0  0  0  0  0  0  0  0
  -25.6070    7.3590    6.9690 C   0  0  0  0  0  0  0  0  0  0  0  0
  -31.0030    8.6310    7.0030 C   0  0  0  0  0  0  0  0  0  0  0  0
  -33.6610    8.2900    7.5790 N   0  0  0  0  0  0  0  0  0  0  0  0
  -32.1560   10.3260    8.1570 C   0  0  0  0  0  0  0  0  0  0  0  0
  -34.0520    6.9360    7.1470 C   0  0  0  0  0  0  0  0  0  0  0  0
  -31.2390    7.4770    6.4460 O   0  0  0  0  0  0  0  0  0  0  0  0
  -28.9440   12.1120    5.9650 C   0  0  0  0  0  0  0  0  0  0  0  0
  1 13  1  0
  3  7  4  0
  4 15  4  0
  4 18  4  0
  5  7  4  0
  6 17  1  0
  6  9  1  0
  8 24  4  0
  9  4  1  0
 10 19  1  0
 11 20  2  3
 11 21  1  0
 12 10  1  0
 14 12  4  0
 14 15  1  0
 15  5  4  0
 16  8  4  0
 16 17  4  0
 17 14  4  0
 18  3  4  0
 19 11  1  0
 21  2  1  0
 22 20  1  0
 22  1  1  0
 23 19  2  0
 24 12  4  0
M  END
$$$$

     RDKit          3D

 21 23  0  0  0  0  0  0  0  0999 V2000
  -35.1150    6.2060    7.9320 C   0  0  0  0  0  0  0  0  0  0  0  0
  -30.0530   10.4030    7.2190 O   0  0  0  0  0  0  0  0  0  0  0  0
  -26.6160   10.6420    5.9080 C   0  0  0  0  0  0  0  0  0  0  0  0
  -33.7220    8.2400    7.6190 N   0  0  0  0  0  0  0  0  0  0  0  0
  -33.4860   10.9400    8.2130 O   0  0  0  0  0  0  0  0  0  0  0  0
  -27.7870   12.6880    5.3810 C   0  0  0  0  0  0  0  0  0  0  0  0
  -28.8660   10.9260    6.5750 C   0  0  0  0  0  0  0  0  0  0  0  0
  -26.5880   11.8870    5.3770 C   0  0  0  0  0  0  0  0  0  0  0  0
  -26.4130    6.4420    7.6780 C   0  0  0  0  0  0  0  0  0  0  0  0
  -27.4850    8.8870    6.9470 C   0  0  0  0  0  0  0  0  0  0  0  0
  -27.7460   10.0710    6.5420 C   0  0  0  0  0  0  0  0  0  0  0  0
  -32.2520   10.2470    8.1960 C   0  0  0  0  0  0  0  0  0  0  0  0
  -28.9140   12.1450    6.0040 C   0  0  0  0  0  0  0  0  0  0  0  0
  -25.5900    7.3690    6.9980 C   0  0  0  0  0  0  0  0  0  0  0  0
  -33.7260    6.8000    7.4950 C   0  0  0  0  0  0  0  0  0  0  0  0
  -26.1110    8.5890    6.6960 C   0  0  0  0  0  0  0  0  0  0  0  0
  -28.2490    7.9540    7.6420 C   0  0  0  0  0  0  0  0  0  0  0  0
  -25.5990    9.6320    5.9950 N   0  0  0  0  0  0  0  0  0  0  0  0
  -32.4220    8.9140    7.4240 C   0  0  0  0  0  0  0  0  0  0  0  0
  -27.6970    6.7310    7.9980 C   0  0  0  0  0  0  0  0  0  0  0  0
  -31.3020   11.0930    7.3210 C   0  0  0  0  0  0  0  0  0  0  0  0
  2 21  1  0
  3 18  2  0
  3 11  4  0
  6 13  4  0
  7  2  1  0
  8  6  4  0
  8  3  4  0
  9 20  1  0
 10 17  1  0
 11  7  4  0
 11 10  2  0
 12  5  1  0
 13  7  4  0
 14  9  2  0
 15  4  1  0
 15  1  1  0
 16 10  1  0
 16 14  1  0
 17 20  2  0
 18 16  1  0
 19  4  1  0
 19 12  1  0
 21 12  1  0
M  END
$$$$

     RDKit          3D

 29 32  0  0  0  0  0  0  0  0999 V2000
  -26.8650    4.5020    9.1800 O   0  0  0  0  0  0  0  0  0  0  0  0
  -28.9400   12.1540    6.0270 C   0  0  0  0  0  0  0  0  0  0  0  0
  -29.7230    8.5180    7.0780 C   0  0  0  0  0  0  0  0  0  0  0  0
  -25.2220    4.1990    8.3750 N   0  0  0  0  0  0  0  0  0  0  0  0
  -32.4990    7.6360    7.1230 C   0  0  0  0  0  0  0  0  0  0  0  0
  -25.5620    9.7350    5.9250 O   0  0  0  0  0  0  0  0  0  0  0  0
  -26.4280    6.4300    7.7530 C   0  0  0  0  0  0  0  0  0  0  0  0
  -26.0920    8.5540    6.6580 C   0  0  0  0  0  0  0  0  0  0  0  0
  -33.7190    8.2440    7.5750 N   0  0  0  0  0  0  0  0  0  0  0  0
  -26.5600   10.5790    5.8650 C   0  0  0  0  0  0  0  0  0  0  0  0
  -26.6670   11.9250    5.3190 C   0  0  0  0  0  0  0  0  0  0  0  0
  -28.8110   10.7750    6.5710 C   0  0  0  0  0  0  0  0  0  0  0  0
  -33.4630   10.9350    8.1430 O   0  0  0  0  0  0  0  0  0  0  0  0
  -27.4520    8.8440    6.9680 C   0  0  0  0  0  0  0  0  0  0  0  0
  -35.3580    4.9990    8.6900 C   0  0  0  0  0  0  0  0  0  0  0  0
  -26.0780    3.5160    9.3670 C   0  0  0  0  0  0  0  0  0  0  0  0
  -31.4680    9.8080    7.9150 C   0  0  0  0  0  0  0  0  0  0  0  0
  -30.0890    9.8680    7.2380 O   0  0  0  0  0  0  0  0  0  0  0  0
  -35.1780    6.2750    7.9880 C   0  0  0  0  0  0  0  0  0  0  0  0
  -27.7360   10.0570    6.5180 C   0  0  0  0  0  0  0  0  0  0  0  0
  -26.1110    5.1600    8.3430 C   0  0  0  0  0  0  0  0  0  0  0  0
  -27.7990   12.7010    5.3550 C   0  0  0  0  0  0  0  0  0  0  0  0
  -33.9860    6.1910    5.8680 C   0  0  0  0  0  0  0  0  0  0  0  0
  -25.5770    7.3380    7.0410 C   0  0  0  0  0  0  0  0  0  0  0  0
  -28.3270    7.9380    7.5930 C   0  0  0  0  0  0  0  0  0  0  0  0
  -27.7170    6.7290    8.0110 C   0  0  0  0  0  0  0  0  0  0  0  0
  -33.9590    5.9590    7.2370 C   0  0  0  0  0  0  0  0  0  0  0  0
  -31.9680   11.1850    8.0930 C   0  0  0  0  0  0  0  0  0  0  0  0
  -32.4690    8.9800    7.1220 C   0  0  0  0  0  0  0  0  0  0  0  0
  1 16  1  0
  2 12  4  0
  3 18  1  0
  3 25  1  0
  4 16  1  0
  5  9  1  0
  6  8  4  0
  7 26  4  0
  7 21  1  0
  8 14  4  0
  8 24  4  0
 10  6  4  0
 10 20  4  0
 11 22  4  0
 11 10  4  0
 14 25  4  0
 17 28  1  0
 18 17  1  0
 19 15  1  0
 20 12  4  0
 20 14  4  0
 21  4  2  0
 21  1  1  0
 22  2  4  0
 23 27  1  0
 24  7  4  0
 25 26  4  0
 27 19  1  0
 28 13  1  0
 29  5  1  0
 29  9  1  0
 29 17  1  0
M  END
$$$$

     RDKit          3D

 27 30  0  0  0  0  0  0  0  0999 V2000
  -25.7640    9.6690    6.0840 N   0  0  0  0  0  0  0  0  0  0  0  0
  -32.6050    8.1350    6.7530 C   0  0  0  0  0  0  0  0  0  0  0  0
  -27.8040   12.6600    5.3740 C   0  0  0  0  0  0  0  0  0  0  0  0
  -27.8790   10.1730    6.4650 C   0  0  0  0  0  0  0  0  0  0  0  0
  -26.1230    8.5470    6.5800 C   0  0  0  0  0  0  0  0  0  0  0  0
  -26.7440   10.5870    5.9170 C   0  0  0  0  0  0  0  0  0  0  0  0
  -26.6410   11.9020    5.3450 C   0  0  0  0  0  0  0  0  0  0  0  0
  -34.1770    5.8500    7.0200 C   0  0  0  0  0  0  0  0  0  0  0  0
  -27.5270    8.8700    6.8450 C   0  0  0  0  0  0  0  0  0  0  0  0
  -26.3760    6.4480    7.6660 C   0  0  0  0  0  0  0  0  0  0  0  0
  -33.6900    8.2960    7.5990 N   0  0  0  0  0  0  0  0  0  0  0  0
  -31.1560   11.1830    7.7560 C   0  0  0  0  0  0  0  0  0  0  0  0
  -31.7440    9.3640    6.8430 C   0  0  0  0  0  0  0  0  0  0  0  0
  -28.9380   12.1470    6.0100 C   0  0  0  0  0  0  0  0  0  0  0  0
  -29.9710   10.6000    7.3160 O   0  0  0  0  0  0  0  0  0  0  0  0
  -25.6060    7.4010    7.0080 C   0  0  0  0  0  0  0  0  0  0  0  0
  -24.8420    5.5290    9.0380 F   0  0  0  0  0  0  0  0  0  0  0  0
  -28.9640   11.0020    6.5230 C   0  0  0  0  0  0  0  0  0  0  0  0
  -28.3120    7.9560    7.6340 C   0  0  0  0  0  0  0  0  0  0  0  0
  -27.9450    9.0770    6.9410 C   0  0  0  0  0  0  0  0  0  0  0  0
  -27.7110    6.7290    7.9780 C   0  0  0  0  0  0  0  0  0  0  0  0
  -33.4900   10.9280    8.1400 O   0  0  0  0  0  0  0  0  0  0  0  0
  -35.2030    6.3480    7.9960 C   0  0  0  0  0  0  0  0  0  0  0  0
  -25.6910    5.3610    8.0030 C   0  0  0  0  0  0  0  0  0  0  0  0
  -33.7890    6.9010    7.8900 C   0  0  0  0  0  0  0  0  0  0  0  0
  -32.2500   10.2330    7.9490 C   0  0  0  0  0  0  0  0  0  0  0  0
  -25.8500    4.3160    7.5720 F   0  0  0  0  0  0  0  0  0  0  0  0
  1  5  1  0
  2 13  1  0
  2 11  1  0
  3 14  4  0
  4 18  4  0
  4 20  1  0
  5  9  2  0
  5 16  1  0
  6  1  1  0
  6  4  4  0
  7  3  4  0
  7  6  4  0
  8 25  1  0
  8 23  1  0
  9 20  2  0
 10 21  1  0
 10 24  1  0
 11 25  1  0
 12 26  1  0
 13 26  1  0
 14 18  4  0
 15 12  1  0
 16 10  2  0
 18 15  1  0
 19 21  2  0
 20 19  1  0
 24 17  1  0
 25 23  1  0
 26 22  1  0
 27 24  1  0
M  END
$$$$

     RDKit          3D

 37 40  0  0  0  0  0  0  0  0999 V2000
  -31.3270   11.5310    8.7660 O   0  0  0  0  0  0  0  0  0  0  0  0
  -36.2520    3.8190    8.9630 O   0  0  0  0  0  0  0  0  0  0  0  0
  -35.2140    6.3610    7.9890 C   0  0  0  0  0  0  0  0  0  0  0  0
  -34.2060    5.2870    8.2730 C   0  0  0  0  0  0  0  0  0  0  0  0
  -26.1520    8.5870    6.6800 C   0  0  0  0  0  0  0  0  0  0  0  0
  -34.7860    2.9600    7.4320 O   0  0  0  0  0  0  0  0  0  0  0  0
  -24.6290    5.7580    9.1460 F   0  0  0  0  0  0  0  0  0  0  0  0
  -26.4180    6.4950    7.7110 C   0  0  0  0  0  0  0  0  0  0  0  0
  -31.7680    9.2560    8.0220 C   0  0  0  0  0  0  0  0  0  0  0  0
  -30.2570   10.2600    6.5740 N   0  0  0  0  0  0  0  0  0  0  0  0
  -32.1140    6.6430    8.3690 C   0  0  0  0  0  0  0  0  0  0  0  0
  -31.3870   10.8020    5.9000 C   0  0  0  0  0  0  0  0  0  0  0  0
  -26.6410   11.9300    5.3210 C   0  0  0  0  0  0  0  0  0  0  0  0
  -25.1370    4.5610    7.2710 F   0  0  0  0  0  0  0  0  0  0  0  0
  -34.0890    2.8530    9.8510 N   0  0  0  0  0  0  0  0  0  0  0  0
  -33.7620    8.2630    7.6160 N   0  0  0  0  0  0  0  0  0  0  0  0
  -32.3210   10.6300    8.2940 C   0  0  0  0  0  0  0  0  0  0  0  0
  -27.7900   10.1190    6.4730 C   0  0  0  0  0  0  0  0  0  0  0  0
  -28.2760    7.9850    7.6610 C   0  0  0  0  0  0  0  0  0  0  0  0
  -24.3960    7.3170    6.4820 F   0  0  0  0  0  0  0  0  0  0  0  0
  -34.9220    3.7010    8.5460 S   0  0  0  0  0  0  0  0  0  0  0  0
  -27.8030   12.6560    5.3720 C   0  0  0  0  0  0  0  0  0  0  0  0
  -34.6130    7.2880    6.8930 C   0  0  0  0  0  0  0  0  0  0  0  0
  -26.6890   10.6860    5.8410 C   0  0  0  0  0  0  0  0  0  0  0  0
  -25.5790    7.3770    6.9720 C   0  0  0  0  0  0  0  0  0  0  0  0
  -28.8610   12.1140    5.9300 C   0  0  0  0  0  0  0  0  0  0  0  0
  -32.7600    2.4100    9.4160 C   0  0  0  0  0  0  0  0  0  0  0  0
  -32.5170    8.0230    7.9960 C   0  0  0  0  0  0  0  0  0  0  0  0
  -25.7270    5.2790    8.3520 C   0  0  0  0  0  0  0  0  0  0  0  0
  -27.7390    6.7360    8.0080 C   0  0  0  0  0  0  0  0  0  0  0  0
  -30.5960    9.2070    7.2820 O   0  0  0  0  0  0  0  0  0  0  0  0
  -35.0200    1.8490   10.3690 C   0  0  0  0  0  0  0  0  0  0  0  0
  -33.5120   10.9910    8.1880 O   0  0  0  0  0  0  0  0  0  0  0  0
  -25.6540    9.6190    5.9390 N   0  0  0  0  0  0  0  0  0  0  0  0
  -32.8900    5.6360    8.7180 C   0  0  0  0  0  0  0  0  0  0  0  0
  -28.9980   10.7820    6.3540 C   0  0  0  0  0  0  0  0  0  0  0  0
  -27.5080    8.9100    6.9910 C   0  0  0  0  0  0  0  0  0  0  0  0
  3  4  1  0
  4 21  1  0
  4 35  1  0
  5 25  4  0
  5 37  4  0
  6 21  2  0
  8 30  4  0
  8 29  1  0
  9 31  1  0
  9 17  1  0
 10 31  1  0
 11 35  1  0
 12 10  1  0
 13 22  2  0
 14 29  1  0
 15 32  1  0
 16 28  1  0
 17  1  1  0
 18 37  2  0
 19 30  4  0
 20 25  1  0
 21  2  2  0
 21 15  1  0
 22 26  1  0
 23 16  1  0
 23  3  1  0
 24 13  1  0
 24 34  1  0
 24 18  1  0
 25  8  4  0
 26 36  2  0
 27 15  1  0
 28  9  1  0
 28 11  1  0
 29  7  1  0
 33 17  2  0
 34  5  2  0
 36 18  1  0
 36 10  1  0
 37 19  4  0
M  END
$$$$

     RDKit          3D

 27 30  0  0  0  0  0  0  0  0999 V2000
  -33.0650    7.3160    6.9870 C   0  0  0  0  0  0  0  0  0  0  0  0
  -32.4130    8.9240    7.2300 C   0  0  0  0  0  0  0  0  0  0  0  0
  -30.7310    8.2850    5.6470 O   0  0  0  0  0  0  0  0  0  0  0  0
  -33.4990   10.9290    8.1780 O   0  0  0  0  0  0  0  0  0  0  0  0
  -31.1300   11.1990    7.3350 C   0  0  0  0  0  0  0  0  0  0  0  0
  -26.6550   11.9100    5.3560 C   0  0  0  0  0  0  0  0  0  0  0  0
  -28.9080   12.1210    5.9640 C   0  0  0  0  0  0  0  0  0  0  0  0
  -25.5720    7.3290    7.0460 C   0  0  0  0  0  0  0  0  0  0  0  0
  -27.4710    8.8880    6.9690 C   0  0  0  0  0  0  0  0  0  0  0  0
  -34.1550    5.8910    5.7130 C   0  0  0  0  0  0  0  0  0  0  0  0
  -27.7350   12.6200    5.3880 C   0  0  0  0  0  0  0  0  0  0  0  0
  -25.1250    9.3520    6.1020 C   0  0  0  0  0  0  0  0  0  0  0  0
  -33.7280    8.3080    7.6000 N   0  0  0  0  0  0  0  0  0  0  0  0
  -27.7430    6.7150    7.9650 C   0  0  0  0  0  0  0  0  0  0  0  0
  -35.1780    6.2820    7.9840 C   0  0  0  0  0  0  0  0  0  0  0  0
  -34.1180    6.0980    6.9450 C   0  0  0  0  0  0  0  0  0  0  0  0
  -26.4180    6.4870    7.7150 C   0  0  0  0  0  0  0  0  0  0  0  0
  -28.2550    7.9580    7.6550 C   0  0  0  0  0  0  0  0  0  0  0  0
  -28.9600   10.8680    6.5190 C   0  0  0  0  0  0  0  0  0  0  0  0
  -27.7560   10.1230    6.4830 C   0  0  0  0  0  0  0  0  0  0  0  0
  -30.8650    9.1090    6.5230 C   0  0  0  0  0  0  0  0  0  0  0  0
  -26.1590    8.6120    6.7400 C   0  0  0  0  0  0  0  0  0  0  0  0
  -23.6080    9.5460    6.2140 C   0  0  0  0  0  0  0  0  0  0  0  0
  -24.7190   10.5460    5.5480 N   0  0  0  0  0  0  0  0  0  0  0  0
  -26.6570   10.7840    6.0010 C   0  0  0  0  0  0  0  0  0  0  0  0
  -32.2410   10.3250    7.8480 C   0  0  0  0  0  0  0  0  0  0  0  0
  -30.1600   10.2760    6.9380 O   0  0  0  0  0  0  0  0  0  0  0  0
  1 16  1  0
  1  2  1  0
  1 13  1  0
  2 21  1  0
  2 13  1  0
  2 26  1  0
  3 21  1  0
  5 26  1  0
  6 11  4  0
  6 25  4  0
  7 19  4  0
  8 17  4  0
  9 18  4  0
 10 16  1  0
 11  7  4  0
 12 23  1  0
 12 22  1  0
 16 15  1  0
 17 14  4  0
 18 14  4  0
 19 27  1  0
 20 19  4  0
 20  9  1  0
 22  9  4  0
 22  8  4  0
 24 12  1  0
 24 23  1  0
 25 20  4  0
 26  4  1  0
 27  5  1  0
M  END
$$$$

     RDKit          3D

 24 27  0  0  0  0  0  0  0  0999 V2000
  -27.4940    8.8930    6.9500 C   0  0  0  0  0  0  0  0  0  0  0  0
  -27.7440   10.1360    6.5160 C   0  0  0  0  0  0  0  0  0  0  0  0
  -35.1960    6.3020    7.9610 C   0  0  0  0  0  0  0  0  0  0  0  0
  -33.6990    8.2240    7.5710 N   0  0  0  0  0  0  0  0  0  0  0  0
  -33.4760    5.8980    5.2780 O   0  0  0  0  0  0  0  0  0  0  0  0
  -28.9010   10.8360    6.4980 C   0  0  0  0  0  0  0  0  0  0  0  0
  -32.9310    7.2110    5.5220 C   0  0  0  0  0  0  0  0  0  0  0  0
  -32.4300    8.8560    7.4490 C   0  0  0  0  0  0  0  0  0  0  0  0
  -30.0500   10.2890    7.0560 O   0  0  0  0  0  0  0  0  0  0  0  0
  -25.5550    7.3740    6.9870 C   0  0  0  0  0  0  0  0  0  0  0  0
  -33.7810    5.9370    7.4610 C   0  0  0  0  0  0  0  0  0  0  0  0
  -25.5840    9.6430    5.9440 N   0  0  0  0  0  0  0  0  0  0  0  0
  -26.4100    6.4330    7.6740 C   0  0  0  0  0  0  0  0  0  0  0  0
  -26.0680    8.5770    6.6450 C   0  0  0  0  0  0  0  0  0  0  0  0
  -28.2920    7.9180    7.7010 C   0  0  0  0  0  0  0  0  0  0  0  0
  -33.1050    7.2340    6.9870 C   0  0  0  0  0  0  0  0  0  0  0  0
  -27.7340    6.7360    7.9960 C   0  0  0  0  0  0  0  0  0  0  0  0
  -26.5880   11.9270    5.3800 C   0  0  0  0  0  0  0  0  0  0  0  0
  -32.2760   10.1730    8.1530 C   0  0  0  0  0  0  0  0  0  0  0  0
  -27.7570   12.6330    5.3830 C   0  0  0  0  0  0  0  0  0  0  0  0
  -33.4960   10.9740    8.1600 O   0  0  0  0  0  0  0  0  0  0  0  0
  -28.9180   12.1530    6.0000 C   0  0  0  0  0  0  0  0  0  0  0  0
  -26.5970   10.5850    5.8530 C   0  0  0  0  0  0  0  0  0  0  0  0
  -31.2080   11.1170    7.4840 C   0  0  0  0  0  0  0  0  0  0  0  0
  1 15  1  0
  2  1  1  0
  5  7  1  0
  6  2  4  0
  6  9  1  0
  8  4  1  0
  8 19  1  0
  9 24  1  0
 10 13  2  0
 11  3  1  0
 12 14  2  0
 13 17  1  0
 14  1  1  0
 14 10  1  0
 15 17  2  0
 16  7  1  0
 16  8  1  0
 16 11  1  0
 16  4  1  0
 18 20  4  0
 18 23  4  0
 19 21  1  0
 20 22  4  0
 22  6  4  0
 23 12  1  0
 23  2  4  0
 24 19  1  0
M  END
$$$$

     RDKit          3D

 21 21  0  0  0  0  0  0  0  0999 V2000
  -27.4830    8.9130    7.0070 C   0  0  0  0  0  0  0  0  0  0  0  0
  -30.1060   10.3070    6.9110 O   0  0  0  0  0  0  0  0  0  0  0  0
  -28.8450   10.9000    6.6560 C   0  0  0  0  0  0  0  0  0  0  0  0
  -33.7160    8.2200    7.6150 N   0  0  0  0  0  0  0  0  0  0  0  0
  -35.0440    6.1420    7.8710 C   0  0  0  0  0  0  0  0  0  0  0  0
  -26.5900   11.9360    5.2820 C   0  0  0  0  0  0  0  0  0  0  0  0
  -28.9410   12.1090    6.0330 C   0  0  0  0  0  0  0  0  0  0  0  0
  -26.2010    8.6220    6.7240 C   0  0  0  0  0  0  0  0  0  0  0  0
  -27.7310   12.5860    5.3620 C   0  0  0  0  0  0  0  0  0  0  0  0
  -33.5010   10.9240    8.1710 O   0  0  0  0  0  0  0  0  0  0  0  0
  -32.4710    8.9180    7.2090 C   0  0  0  0  0  0  0  0  0  0  0  0
  -33.7900    6.8160    7.4260 C   0  0  0  0  0  0  0  0  0  0  0  0
  -26.4110    6.4370    7.6630 C   0  0  0  0  0  0  0  0  0  0  0  0
  -31.4810    7.8030    7.2640 C   0  0  0  0  0  0  0  0  0  0  0  0
  -25.3620    9.6630    6.1440 C   0  0  0  0  0  0  0  0  0  0  0  0
  -32.2680   10.1950    8.0790 C   0  0  0  0  0  0  0  0  0  0  0  0
  -27.7110    6.7400    8.0020 C   0  0  0  0  0  0  0  0  0  0  0  0
  -31.0660   11.1120    7.7210 C   0  0  0  0  0  0  0  0  0  0  0  0
  -27.8060   10.1370    6.5030 C   0  0  0  0  0  0  0  0  0  0  0  0
  -25.5950    7.3550    6.9780 C   0  0  0  0  0  0  0  0  0  0  0  0
  -28.2960    7.9640    7.6500 C   0  0  0  0  0  0  0  0  0  0  0  0
  1 21  4  0
  2 18  1  0
  3  2  1  0
  6  9  2  0
  7  3  2  3
  8 20  4  0
  8  1  4  0
  9  7  1  0
 11 14  1  0
 11  4  1  0
 11 16  1  0
 12  4  2  3
 12  5  1  0
 13 17  4  0
 15  8  1  0
 16 10  1  0
 18 16  1  0
 19  3  1  0
 19  1  1  0
 20 13  4  0
 21 17  4  0
M  END
$$$$

     RDKit          3D

 29 31  0  0  0  0  0  0  0  0999 V2000
  -23.6250    6.1960    7.6060 O   0  0  0  0  0  0  0  0  0  0  0  0
  -26.0990    8.5870    6.6580 C   0  0  0  0  0  0  0  0  0  0  0  0
  -30.7310    9.7790    6.4400 C   0  0  0  0  0  0  0  0  0  0  0  0
  -25.5470    7.3800    6.9900 C   0  0  0  0  0  0  0  0  0  0  0  0
  -33.4750   10.9090    8.1570 O   0  0  0  0  0  0  0  0  0  0  0  0
  -33.1970    5.1060    9.0620 C   0  0  0  0  0  0  0  0  0  0  0  0
  -34.4840    4.5440    7.2460 C   0  0  0  0  0  0  0  0  0  0  0  0
  -32.2950   10.2370    8.0400 C   0  0  0  0  0  0  0  0  0  0  0  0
  -32.5460    6.4040    6.4870 O   0  0  0  0  0  0  0  0  0  0  0  0
  -31.1440   10.9000    7.2340 C   0  0  0  0  0  0  0  0  0  0  0  0
  -26.3870    6.4120    7.6940 C   0  0  0  0  0  0  0  0  0  0  0  0
  -27.8530   12.6970    5.4160 C   0  0  0  0  0  0  0  0  0  0  0  0
  -28.2550    7.9990    7.6600 C   0  0  0  0  0  0  0  0  0  0  0  0
  -34.1300    5.7830    7.9770 C   0  0  0  0  0  0  0  0  0  0  0  0
  -31.1510    8.5790    6.9050 O   0  0  0  0  0  0  0  0  0  0  0  0
  -33.2890    6.9050    7.3810 C   0  0  0  0  0  0  0  0  0  0  0  0
  -27.7500   10.1910    6.4180 C   0  0  0  0  0  0  0  0  0  0  0  0
  -26.6050   10.6710    5.7900 C   0  0  0  0  0  0  0  0  0  0  0  0
  -28.9460   12.1570    6.0440 C   0  0  0  0  0  0  0  0  0  0  0  0
  -29.9320   10.3710    7.3630 O   0  0  0  0  0  0  0  0  0  0  0  0
  -35.1420    6.3990    7.9980 C   0  0  0  0  0  0  0  0  0  0  0  0
  -24.1470    7.1560    6.8830 C   0  0  0  0  0  0  0  0  0  0  0  0
  -27.7290    6.7190    7.9840 C   0  0  0  0  0  0  0  0  0  0  0  0
  -23.4270    7.9680    6.2800 O   0  0  0  0  0  0  0  0  0  0  0  0
  -33.7050    8.2410    7.6540 N   0  0  0  0  0  0  0  0  0  0  0  0
  -28.8350   10.8140    6.6420 C   0  0  0  0  0  0  0  0  0  0  0  0
  -32.5910    9.0270    7.1790 C   0  0  0  0  0  0  0  0  0  0  0  0
  -26.6010   11.9560    5.3210 C   0  0  0  0  0  0  0  0  0  0  0  0
  -27.3830    8.8710    6.9960 C   0  0  0  0  0  0  0  0  0  0  0  0
  2  4  4  0
  2 29  4  0
  3 15  1  0
  3 10  1  0
  3 20  1  0
  4 11  4  0
  7 14  1  0
  8  5  1  0
  9 16  2  0
 10 20  1  0
 10  8  1  0
 11 23  4  0
 12 19  4  0
 13 23  4  0
 14 21  1  0
 14  6  1  0
 15 27  1  0
 16 25  1  0
 16 14  1  0
 17 26  4  0
 17 29  1  0
 18 17  4  0
 19 26  4  0
 22  4  1  0
 22  1  1  0
 24 22  2  0
 27 25  1  0
 27  8  1  0
 28 12  4  0
 28 18  4  0
 29 13  4  0
M  END
$$$$

     RDKit          3D

 27 32  0  0  0  0  0  0  0  0999 V2000
  -25.8630    8.4990    6.5570 C   0  0  0  0  0  0  0  0  0  0  0  0
  -26.5980   11.8090    5.3550 C   0  0  0  0  0  0  0  0  0  0  0  0
  -35.1680    6.2830    7.9800 C   0  0  0  0  0  0  0  0  0  0  0  0
  -33.7440    8.2460    7.5790 N   0  0  0  0  0  0  0  0  0  0  0  0
  -32.4410   10.2450    7.7350 C   0  0  0  0  0  0  0  0  0  0  0  0
  -25.5810    7.3110    7.0020 C   0  0  0  0  0  0  0  0  0  0  0  0
  -25.8230    9.6800    5.8980 N   0  0  0  0  0  0  0  0  0  0  0  0
  -27.7820    8.9820    6.9800 C   0  0  0  0  0  0  0  0  0  0  0  0
  -28.2660    7.9560    7.6430 C   0  0  0  0  0  0  0  0  0  0  0  0
  -26.7860   10.5650    5.8230 C   0  0  0  0  0  0  0  0  0  0  0  0
  -31.6800    8.0500    7.1760 O   0  0  0  0  0  0  0  0  0  0  0  0
  -27.8350   10.1660    6.5130 C   0  0  0  0  0  0  0  0  0  0  0  0
  -33.4830   10.9520    8.1730 O   0  0  0  0  0  0  0  0  0  0  0  0
  -31.7080    5.8730    8.3340 C   0  0  0  0  0  0  0  0  0  0  0  0
  -28.9150   12.1410    5.9920 C   0  0  0  0  0  0  0  0  0  0  0  0
  -34.0500    6.4850    5.8280 C   0  0  0  0  0  0  0  0  0  0  0  0
  -32.6340    8.8470    7.8070 C   0  0  0  0  0  0  0  0  0  0  0  0
  -26.8530    9.1220    6.6170 C   0  0  0  0  0  0  0  0  0  0  0  0
  -30.0960   10.4180    7.0610 N   0  0  0  0  0  0  0  0  0  0  0  0
  -31.3980    5.8790    9.4210 O   0  0  0  0  0  0  0  0  0  0  0  0
  -32.2110    6.7380    7.2080 C   0  0  0  0  0  0  0  0  0  0  0  0
  -27.7610   12.5870    5.4140 C   0  0  0  0  0  0  0  0  0  0  0  0
  -28.9540   10.8850    6.5740 C   0  0  0  0  0  0  0  0  0  0  0  0
  -33.7920    6.8040    7.2680 C   0  0  0  0  0  0  0  0  0  0  0  0
  -31.4130   10.8820    7.1200 C   0  0  0  0  0  0  0  0  0  0  0  0
  -26.4220    6.3980    7.6690 C   0  0  0  0  0  0  0  0  0  0  0  0
  -27.7120    6.7380    8.0130 C   0  0  0  0  0  0  0  0  0  0  0  0
  1  6  2  0
  2 22  2  0
  4 17  2  0
  5 17  1  0
  5 13  1  0
  6 26  1  0
  7  1  1  0
  7 18  1  0
  8  9  1  0
  9 27  2  0
 10  2  1  0
 10  7  1  0
 10 12  1  0
 10 18  1  0
 11 21  1  0
 11 17  1  0
 12 23  1  0
 12  8  2  0
 14 20  2  0
 15 23  2  0
 16 24  1  0
 18  1  1  0
 18  8  1  0
 19 25  2  3
 21 24  1  0
 21 14  1  0
 22 15  1  0
 23 19  1  0
 24  4  1  0
 24  3  1  0
 25  5  1  0
 26 27  1  0
M  END
$$$$

     RDKit          3D

 37 40  0  0  0  0  0  0  0  0999 V2000
  -33.5740    5.8750    5.7360 C   0  0  0  0  0  0  0  0  0  0  0  0
  -26.2680    4.1240    7.7330 F   0  0  0  0  0  0  0  0  0  0  0  0
  -25.3210   10.2530    5.4990 O   0  0  0  0  0  0  0  0  0  0  0  0
  -27.7200    6.7530    7.9910 C   0  0  0  0  0  0  0  0  0  0  0  0
  -28.2750    7.9890    7.6650 C   0  0  0  0  0  0  0  0  0  0  0  0
  -31.1390   11.0640    7.6540 C   0  0  0  0  0  0  0  0  0  0  0  0
  -33.9320    6.5140    7.1920 C   0  0  0  0  0  0  0  0  0  0  0  0
  -32.7180    7.0710    7.5980 C   0  0  0  0  0  0  0  0  0  0  0  0
  -25.5610    7.2460    7.0670 C   0  0  0  0  0  0  0  0  0  0  0  0
  -27.7110   13.9490    4.7130 C   0  0  0  0  0  0  0  0  0  0  0  0
  -28.6220    5.9490    8.8990 C   0  0  0  0  0  0  0  0  0  0  0  0
  -32.6730    9.0680    7.0800 C   0  0  0  0  0  0  0  0  0  0  0  0
  -33.7360    8.1930    7.6200 N   0  0  0  0  0  0  0  0  0  0  0  0
  -33.1570    4.5290    9.2850 C   0  0  0  0  0  0  0  0  0  0  0  0
  -35.2140    6.2910    8.0190 C   0  0  0  0  0  0  0  0  0  0  0  0
  -26.5580   11.9220    5.3570 C   0  0  0  0  0  0  0  0  0  0  0  0
  -27.1430   14.8800    5.5060 N   0  0  0  0  0  0  0  0  0  0  0  0
  -34.4450    5.2860    8.8400 C   0  0  0  0  0  0  0  0  0  0  0  0
  -28.9280   12.0910    5.9770 C   0  0  0  0  0  0  0  0  0  0  0  0
  -25.9730    5.1420    8.4450 C   0  0  0  0  0  0  0  0  0  0  0  0
  -28.9240   10.8800    6.4910 C   0  0  0  0  0  0  0  0  0  0  0  0
  -25.3470   12.2160    4.8100 N   0  0  0  0  0  0  0  0  0  0  0  0
  -32.2340   10.1560    8.0740 C   0  0  0  0  0  0  0  0  0  0  0  0
  -27.7560   12.6090    5.3740 C   0  0  0  0  0  0  0  0  0  0  0  0
  -33.3740    3.7860   10.1510 O   0  0  0  0  0  0  0  0  0  0  0  0
  -26.1080    8.4350    6.6300 C   0  0  0  0  0  0  0  0  0  0  0  0
  -27.4420    8.8240    6.9110 C   0  0  0  0  0  0  0  0  0  0  0  0
  -31.4960    7.8160    6.4640 S   0  0  0  0  0  0  0  0  0  0  0  0
  -27.6560   10.1500    6.4460 C   0  0  0  0  0  0  0  0  0  0  0  0
  -33.4810   10.9750    8.1680 O   0  0  0  0  0  0  0  0  0  0  0  0
  -33.9010    4.5200    6.0340 O   0  0  0  0  0  0  0  0  0  0  0  0
  -24.6850    5.2130    8.6160 F   0  0  0  0  0  0  0  0  0  0  0  0
  -32.0460    4.8300    8.7910 O   0  0  0  0  0  0  0  0  0  0  0  0
  -26.5400    5.0200    9.7070 F   0  0  0  0  0  0  0  0  0  0  0  0
  -30.1190   10.2670    7.0340 O   0  0  0  0  0  0  0  0  0  0  0  0
  -26.5010   10.7370    5.7810 C   0  0  0  0  0  0  0  0  0  0  0  0
  -26.4650    6.3880    7.7800 C   0  0  0  0  0  0  0  0  0  0  0  0
  1 31  1  0
  2 20  1  0
  3 36  1  0
  4 11  1  0
  5  4  4  0
  6 23  1  0
  7  1  1  0
  7  8  1  0
  7 13  1  0
  7 15  1  0
  8 28  1  0
  8 13  1  0
  9 37  4  0
 10 24  1  0
 10 17  1  0
 12 13  1  0
 12 23  1  0
 14 25  1  0
 15 18  1  0
 16 24  4  0
 16 36  4  0
 18 14  1  0
 19 21  4  0
 20 32  1  0
 20 34  1  0
 21 35  1  0
 22 16  1  0
 23 30  1  0
 24 19  4  0
 26 27  4  0
 26  9  4  0
 27  5  4  0
 28 12  1  0
 29 21  4  0
 29 27  1  0
 33 14  2  0
 35  6  1  0
 36 29  4  0
 37  4  4  0
 37 20  1  0
M  END
$$$$

     RDKit          3D

 27 29  0  0  0  0  0  0  0  0999 V2000
  -35.1580    6.3630    8.0000 C   0  0  0  0  0  0  0  0  0  0  0  0
  -34.1440    5.8470    7.1950 C   0  0  0  0  0  0  0  0  0  0  0  0
  -31.0840   10.9890    7.5580 C   0  0  0  0  0  0  0  0  0  0  0  0
  -25.0700    9.3430    6.1610 N   0  0  0  0  0  0  0  0  0  0  0  0
  -33.1760    7.0530    7.0820 C   0  0  0  0  0  0  0  0  0  0  0  0
  -33.4830   10.8900    8.1350 O   0  0  0  0  0  0  0  0  0  0  0  0
  -31.8720    6.6340    7.2390 O   0  0  0  0  0  0  0  0  0  0  0  0
  -32.5050    8.9190    7.4030 C   0  0  0  0  0  0  0  0  0  0  0  0
  -33.7190    8.2190    7.6400 N   0  0  0  0  0  0  0  0  0  0  0  0
  -31.0450   11.3500    6.3620 C   0  0  0  0  0  0  0  0  0  0  0  0
  -32.2840   10.3480    8.1940 C   0  0  0  0  0  0  0  0  0  0  0  0
  -26.4140    6.4190    7.7470 C   0  0  0  0  0  0  0  0  0  0  0  0
  -25.1760   10.2300    5.7350 N   0  0  0  0  0  0  0  0  0  0  0  0
  -26.0460    8.5280    6.6780 C   0  0  0  0  0  0  0  0  0  0  0  0
  -29.9750   10.2470    7.2900 O   0  0  0  0  0  0  0  0  0  0  0  0
  -27.7750   12.6370    5.3580 C   0  0  0  0  0  0  0  0  0  0  0  0
  -28.8910   10.8760    6.5900 C   0  0  0  0  0  0  0  0  0  0  0  0
  -28.2770    7.9620    7.6680 C   0  0  0  0  0  0  0  0  0  0  0  0
  -27.7350   10.1270    6.4760 C   0  0  0  0  0  0  0  0  0  0  0  0
  -26.6070   11.8950    5.3130 C   0  0  0  0  0  0  0  0  0  0  0  0
  -25.6230    7.3390    7.0170 C   0  0  0  0  0  0  0  0  0  0  0  0
  -31.6570    8.7760    6.3230 C   0  0  0  0  0  0  0  0  0  0  0  0
  -27.4090    8.9070    7.0050 C   0  0  0  0  0  0  0  0  0  0  0  0
  -26.5440   10.7070    5.8640 C   0  0  0  0  0  0  0  0  0  0  0  0
  -28.9190   12.1370    6.0290 C   0  0  0  0  0  0  0  0  0  0  0  0
  -33.7450    4.6430    8.0140 C   0  0  0  0  0  0  0  0  0  0  0  0
  -27.7340    6.7100    7.9930 C   0  0  0  0  0  0  0  0  0  0  0  0
  2  1  1  0
  2 26  1  0
  3 10  1  0
  3 11  1  0
  4 14  4  0
  5  2  1  0
  5  7  2  0
  5  9  1  0
  8 22  1  0
  8  9  1  0
  8 11  1  0
 11  6  1  0
 12 27  4  0
 13 24  4  0
 13  4  4  0
 14 23  4  0
 14 21  4  0
 15  3  1  0
 16 25  4  0
 17 15  1  0
 18 27  4  0
 19 17  4  0
 19 23  4  0
 20 16  4  0
 20 24  4  0
 21 12  4  0
 23 18  4  0
 24 19  4  0
 25 17  4  0
M  END
$$$$

     RDKit          3D

 24 26  0  0  0  0  0  0  0  0999 V2000
  -33.7380    8.1920    7.6050 N   0  0  0  0  0  0  0  0  0  0  0  0
  -31.7650    7.9080    5.5580 C   0  0  0  0  0  0  0  0  0  0  0  0
  -33.4810   10.9420    8.1230 O   0  0  0  0  0  0  0  0  0  0  0  0
  -25.6830    9.6180    5.9720 N   0  0  0  0  0  0  0  0  0  0  0  0
  -26.4030    6.4270    7.6850 C   0  0  0  0  0  0  0  0  0  0  0  0
  -32.3210   10.2760    7.8070 C   0  0  0  0  0  0  0  0  0  0  0  0
  -27.7670   12.6780    5.3720 C   0  0  0  0  0  0  0  0  0  0  0  0
  -27.7460   10.0960    6.5190 C   0  0  0  0  0  0  0  0  0  0  0  0
  -35.1990    6.2700    7.9930 C   0  0  0  0  0  0  0  0  0  0  0  0
  -30.0910   10.3920    6.9960 O   0  0  0  0  0  0  0  0  0  0  0  0
  -27.7380    6.7550    8.0070 C   0  0  0  0  0  0  0  0  0  0  0  0
  -28.2920    7.9970    7.6290 C   0  0  0  0  0  0  0  0  0  0  0  0
  -26.6020   10.6200    5.8970 C   0  0  0  0  0  0  0  0  0  0  0  0
  -27.5010    8.8180    6.9190 C   0  0  0  0  0  0  0  0  0  0  0  0
  -33.0030    6.0100    7.5910 O   0  0  0  0  0  0  0  0  0  0  0  0
  -32.3410    8.7910    7.7380 C   0  0  0  0  0  0  0  0  0  0  0  0
  -25.5880    7.3330    6.9510 C   0  0  0  0  0  0  0  0  0  0  0  0
  -28.9150   12.1600    5.9710 C   0  0  0  0  0  0  0  0  0  0  0  0
  -28.8930   10.8190    6.5630 C   0  0  0  0  0  0  0  0  0  0  0  0
  -26.5940   11.8630    5.3130 C   0  0  0  0  0  0  0  0  0  0  0  0
  -33.8840    6.8340    7.6370 C   0  0  0  0  0  0  0  0  0  0  0  0
  -26.2050    8.5760    6.6530 C   0  0  0  0  0  0  0  0  0  0  0  0
  -31.3440    8.3400    6.7320 C   0  0  0  0  0  0  0  0  0  0  0  0
  -31.2650   11.0810    7.3290 C   0  0  0  0  0  0  0  0  0  0  0  0
  1 21  1  0
  1 16  1  0
  2 23  2  0
  4 22  1  0
  5 11  1  0
  6  3  1  0
  7 18  4  0
  8 19  4  0
  8 14  2  0
 10 24  1  0
 12 11  2  0
 13  4  2  0
 13  8  4  0
 14 12  1  0
 15 21  2  0
 16 23  1  0
 16  6  1  0
 17  5  2  0
 18 19  4  0
 19 10  1  0
 20  7  4  0
 20 13  4  0
 21  9  1  0
 22 14  1  0
 22 17  1  0
 24  6  2  3
M  END
$$$$

     RDKit          3D

 21 23  0  0  0  0  0  0  0  0999 V2000
  -27.8040   12.6440    5.3940 C   0  0  0  0  0  0  0  0  0  0  0  0
  -27.5000    8.8510    6.9620 C   0  0  0  0  0  0  0  0  0  0  0  0
  -32.0420   10.6690    8.2840 C   0  0  0  0  0  0  0  0  0  0  0  0
  -34.0060    6.8190    7.2140 C   0  0  0  0  0  0  0  0  0  0  0  0
  -27.6830    6.7410    8.0270 C   0  0  0  0  0  0  0  0  0  0  0  0
  -26.6170   11.8940    5.3260 C   0  0  0  0  0  0  0  0  0  0  0  0
  -32.3350    8.5710    7.0280 C   0  0  0  0  0  0  0  0  0  0  0  0
  -26.0140    8.5100    6.5840 C   0  0  0  0  0  0  0  0  0  0  0  0
  -25.5240    9.6250    5.9810 N   0  0  0  0  0  0  0  0  0  0  0  0
  -30.1090   10.1670    6.9260 O   0  0  0  0  0  0  0  0  0  0  0  0
  -31.4270   10.0130    7.0570 C   0  0  0  0  0  0  0  0  0  0  0  0
  -27.7880   10.1370    6.5050 C   0  0  0  0  0  0  0  0  0  0  0  0
  -28.9880   10.9040    6.4920 C   0  0  0  0  0  0  0  0  0  0  0  0
  -33.4440   10.9610    8.1720 O   0  0  0  0  0  0  0  0  0  0  0  0
  -28.2550    7.8980    7.6340 C   0  0  0  0  0  0  0  0  0  0  0  0
  -26.3570    6.4350    7.6800 C   0  0  0  0  0  0  0  0  0  0  0  0
  -33.7350    8.2170    7.5930 N   0  0  0  0  0  0  0  0  0  0  0  0
  -25.5590    7.3730    7.0030 C   0  0  0  0  0  0  0  0  0  0  0  0
  -26.6200   10.5790    5.8630 C   0  0  0  0  0  0  0  0  0  0  0  0
  -28.9400   12.1370    6.0070 C   0  0  0  0  0  0  0  0  0  0  0  0
  -35.1300    6.2370    7.9410 C   0  0  0  0  0  0  0  0  0  0  0  0
  1 20  4  0
  2 15  1  0
  4 17  1  0
  4 21  1  0
  6  1  4  0
  6 19  4  0
  7 17  1  0
  8  2  1  0
  8 18  1  0
  9  8  1  0
 10 11  1  0
 11  7  1  0
 11  3  1  0
 12  2  2  0
 13 12  4  0
 13 10  1  0
 14  3  1  0
 15  5  2  0
 16  5  1  0
 18 16  2  0
 19  9  2  0
 19 12  4  0
 20 13  4  0
M  END
$$$$

     RDKit          3D

 29 31  0  0  0  0  0  0  0  0999 V2000
  -28.6300    4.6120    8.7900 O   0  0  0  0  0  0  0  0  0  0  0  0
  -32.4560    8.9390    7.5550 C   0  0  0  0  0  0  0  0  0  0  0  0
  -27.7470   12.6640    5.3580 C   0  0  0  0  0  0  0  0  0  0  0  0
  -33.8360    5.5000    5.1380 N   0  0  0  0  0  0  0  0  0  0  0  0
  -27.7090   10.1180    6.4520 C   0  0  0  0  0  0  0  0  0  0  0  0
  -25.5710    7.3850    6.9990 C   0  0  0  0  0  0  0  0  0  0  0  0
  -26.6800   11.8850    5.3180 C   0  0  0  0  0  0  0  0  0  0  0  0
  -34.0880    6.5870    5.8690 C   0  0  0  0  0  0  0  0  0  0  0  0
  -31.1840   11.0630    7.4340 C   0  0  0  0  0  0  0  0  0  0  0  0
  -28.8880   12.1170    5.9970 C   0  0  0  0  0  0  0  0  0  0  0  0
  -28.2450    7.9690    7.6410 C   0  0  0  0  0  0  0  0  0  0  0  0
  -28.7690    5.8120    8.6160 C   0  0  0  0  0  0  0  0  0  0  0  0
  -26.3870    6.4490    7.6760 C   0  0  0  0  0  0  0  0  0  0  0  0
  -32.2670   10.2550    8.1400 C   0  0  0  0  0  0  0  0  0  0  0  0
  -25.5480    9.6610    5.9700 N   0  0  0  0  0  0  0  0  0  0  0  0
  -26.2880    4.0990    8.6370 O   0  0  0  0  0  0  0  0  0  0  0  0
  -27.5440    8.8530    6.9470 C   0  0  0  0  0  0  0  0  0  0  0  0
  -30.0410    6.3870    8.9280 C   0  0  0  0  0  0  0  0  0  0  0  0
  -33.5070   10.9790    8.1640 O   0  0  0  0  0  0  0  0  0  0  0  0
  -27.7100    6.7310    8.0170 C   0  0  0  0  0  0  0  0  0  0  0  0
  -26.5790   10.6400    5.8810 C   0  0  0  0  0  0  0  0  0  0  0  0
  -33.7220    8.2040    7.6320 N   0  0  0  0  0  0  0  0  0  0  0  0
  -33.9260    6.7900    7.3250 C   0  0  0  0  0  0  0  0  0  0  0  0
  -28.9190   10.8230    6.6080 C   0  0  0  0  0  0  0  0  0  0  0  0
  -26.1150    8.5990    6.6310 C   0  0  0  0  0  0  0  0  0  0  0  0
  -31.6230    8.4200    6.4890 C   0  0  0  0  0  0  0  0  0  0  0  0
  -30.0350   10.4180    7.2700 O   0  0  0  0  0  0  0  0  0  0  0  0
  -35.2120    6.3360    8.0030 C   0  0  0  0  0  0  0  0  0  0  0  0
  -25.6960    5.1340    7.9990 C   0  0  0  0  0  0  0  0  0  0  0  0
  2 26  1  0
  2 22  1  0
  2 14  1  0
  3 10  4  0
  4  8  1  0
  5 24  4  0
  5 17  1  0
  6 13  2  0
  7  3  4  0
  7 21  4  0
  8 23  1  0
  9 14  1  0
 10 24  4  0
 11 20  2  0
 12  1  2  0
 12 18  1  0
 13 29  1  0
 13 20  1  0
 14 19  1  0
 15 25  2  0
 17 11  1  0
 20 12  1  0
 21 15  1  0
 21  5  4  0
 23 22  1  0
 23 28  1  0
 24 27  1  0
 25 17  1  0
 25  6  1  0
 27  9  1  0
 29 16  1  0
M  END
$$$$

     RDKit          3D

 27 31  0  0  0  0  0  0  0  0999 V2000
  -33.6970    4.6670    8.8020 C   0  0  0  0  0  0  0  0  0  0  0  0
  -26.5960   11.8750    5.3060 C   0  0  0  0  0  0  0  0  0  0  0  0
  -33.7830    5.9880    8.0530 C   0  0  0  0  0  0  0  0  0  0  0  0
  -25.6150    7.3590    7.0040 C   0  0  0  0  0  0  0  0  0  0  0  0
  -25.7830    5.2630    8.1860 C   0  0  0  0  0  0  0  0  0  0  0  0
  -32.3500   10.1990    7.8010 C   0  0  0  0  0  0  0  0  0  0  0  0
  -27.4870    8.8720    6.9870 C   0  0  0  0  0  0  0  0  0  0  0  0
  -28.9370   12.1350    6.0010 C   0  0  0  0  0  0  0  0  0  0  0  0
  -33.4570   10.9750    8.2000 O   0  0  0  0  0  0  0  0  0  0  0  0
  -25.2860    4.2590    8.5780 N   0  0  0  0  0  0  0  0  0  0  0  0
  -27.7730   10.1100    6.5740 C   0  0  0  0  0  0  0  0  0  0  0  0
  -26.1180    8.5510    6.6160 C   0  0  0  0  0  0  0  0  0  0  0  0
  -29.0190   10.8220    6.5030 C   0  0  0  0  0  0  0  0  0  0  0  0
  -26.3960    6.4190    7.6940 C   0  0  0  0  0  0  0  0  0  0  0  0
  -31.5610   10.9580    6.8830 C   0  0  0  0  0  0  0  0  0  0  0  0
  -35.1890    6.4220    7.9390 C   0  0  0  0  0  0  0  0  0  0  0  0
  -26.6190   10.6160    5.9280 C   0  0  0  0  0  0  0  0  0  0  0  0
  -25.6480    9.6730    6.0090 N   0  0  0  0  0  0  0  0  0  0  0  0
  -33.6560    8.2890    7.5910 N   0  0  0  0  0  0  0  0  0  0  0  0
  -29.8810   10.0170    7.5550 O   0  0  0  0  0  0  0  0  0  0  0  0
  -30.3370   10.2530    6.4110 C   0  0  0  0  0  0  0  0  0  0  0  0
  -28.2940    7.9290    7.6110 C   0  0  0  0  0  0  0  0  0  0  0  0
  -32.6930    6.5660    7.3640 C   0  0  0  0  0  0  0  0  0  0  0  0
  -32.2060    7.8740    7.4700 C   0  0  0  0  0  0  0  0  0  0  0  0
  -27.7440   12.6540    5.3950 C   0  0  0  0  0  0  0  0  0  0  0  0
  -27.7080    6.7390    7.9880 C   0  0  0  0  0  0  0  0  0  0  0  0
  -32.6450    9.0590    6.9920 C   0  0  0  0  0  0  0  0  0  0  0  0
  2 25  2  0
  2 17  1  0
  3  1  1  0
  4 14  1  0
  5 10  3  0
  6  9  1  0
  7 22  1  0
 11  7  2  0
 12  7  1  0
 12  4  2  0
 13  8  1  0
 13 11  1  0
 13 20  1  0
 14 26  1  0
 14  5  1  0
 15  6  1  0
 16  3  1  0
 17 18  2  0
 17 11  1  0
 18 12  1  0
 21 13  1  0
 21 15  1  0
 21 20  1  0
 22 26  2  0
 23  3  1  0
 24 23  1  0
 24 19  1  0
 25  8  1  0
 27 24  1  0
 27 19  1  0
 27  6  1  0
M  END
$$$$

     RDKit          3D

 27 31  0  0  0  0  0  0  0  0999 V2000
  -24.5650    9.1450    6.2960 O   0  0  0  0  0  0  0  0  0  0  0  0
  -35.1790    6.3160    7.9540 C   0  0  0  0  0  0  0  0  0  0  0  0
  -28.9120   10.8030    6.5790 C   0  0  0  0  0  0  0  0  0  0  0  0
  -31.7930    8.8110    6.1740 C   0  0  0  0  0  0  0  0  0  0  0  0
  -31.2230   11.0200    7.4320 C   0  0  0  0  0  0  0  0  0  0  0  0
  -33.3810    7.3250    6.5620 C   0  0  0  0  0  0  0  0  0  0  0  0
  -26.1040    8.6310    6.6530 C   0  0  0  0  0  0  0  0  0  0  0  0
  -28.2410    7.8880    7.6270 C   0  0  0  0  0  0  0  0  0  0  0  0
  -26.5630   11.9010    5.2960 C   0  0  0  0  0  0  0  0  0  0  0  0
  -26.6180   10.6170    5.8600 C   0  0  0  0  0  0  0  0  0  0  0  0
  -34.0550    6.0650    7.0340 C   0  0  0  0  0  0  0  0  0  0  0  0
  -26.4090    6.4440    7.7180 C   0  0  0  0  0  0  0  0  0  0  0  0
  -32.4000    8.8530    7.4940 C   0  0  0  0  0  0  0  0  0  0  0  0
  -30.5750    9.2720    6.0220 O   0  0  0  0  0  0  0  0  0  0  0  0
  -34.2750    5.2780    5.9610 O   0  0  0  0  0  0  0  0  0  0  0  0
  -27.7570   10.1260    6.4910 C   0  0  0  0  0  0  0  0  0  0  0  0
  -27.7190    6.7440    8.0030 C   0  0  0  0  0  0  0  0  0  0  0  0
  -27.4740    8.8900    7.0120 C   0  0  0  0  0  0  0  0  0  0  0  0
  -27.7750   12.6670    5.4220 C   0  0  0  0  0  0  0  0  0  0  0  0
  -32.2530   10.2480    8.0930 C   0  0  0  0  0  0  0  0  0  0  0  0
  -33.7380    8.2370    7.6330 N   0  0  0  0  0  0  0  0  0  0  0  0
  -25.5710    9.6990    5.9580 N   0  0  0  0  0  0  0  0  0  0  0  0
  -33.4600   10.9790    8.1370 O   0  0  0  0  0  0  0  0  0  0  0  0
  -33.0070    5.3360    7.7320 C   0  0  0  0  0  0  0  0  0  0  0  0
  -25.5310    7.3560    7.0020 C   0  0  0  0  0  0  0  0  0  0  0  0
  -30.0650   10.1030    7.0380 C   0  0  0  0  0  0  0  0  0  0  0  0
  -28.9410   12.1050    5.9750 C   0  0  0  0  0  0  0  0  0  0  0  0
  1  7  1  0
  4 13  1  0
  5 20  1  0
  6 11  1  0
  6 21  1  0
  7 25  1  0
  7 18  1  0
  8 17  2  0
  9 19  4  0
  9 10  4  0
 10 22  1  0
 10 16  4  0
 11 24  1  0
 11  2  1  0
 12 17  1  0
 13 21  1  0
 13 20  1  0
 14  4  1  0
 14 26  1  0
 15 11  1  0
 16  3  4  0
 16 18  1  0
 18  8  1  0
 19 27  4  0
 20 23  1  0
 22  1  1  0
 22  7  1  0
 25 12  2  0
 26  3  1  0
 26  5  1  0
 27  3  4  0
M  END
$$$$

     RDKit          3D

 24 26  0  0  0  0  0  0  0  0999 V2000
  -25.5960    9.5710    5.9060 N   0  0  0  0  0  0  0  0  0  0  0  0
  -33.8100    6.8060    7.5030 C   0  0  0  0  0  0  0  0  0  0  0  0
  -26.4240    6.4550    7.6830 C   0  0  0  0  0  0  0  0  0  0  0  0
  -32.7560    5.9790    8.0570 C   0  0  0  0  0  0  0  0  0  0  0  0
  -30.0410   10.2020    7.2710 O   0  0  0  0  0  0  0  0  0  0  0  0
  -28.2620    7.8990    7.6310 C   0  0  0  0  0  0  0  0  0  0  0  0
  -26.6290   11.9150    5.3340 C   0  0  0  0  0  0  0  0  0  0  0  0
  -27.7570   12.6990    5.4070 C   0  0  0  0  0  0  0  0  0  0  0  0
  -25.5940    7.3300    6.9940 C   0  0  0  0  0  0  0  0  0  0  0  0
  -32.2550   10.2340    8.0090 C   0  0  0  0  0  0  0  0  0  0  0  0
  -30.0280    8.8040    7.4050 C   0  0  0  0  0  0  0  0  0  0  0  0
  -33.4720   10.9650    8.1600 O   0  0  0  0  0  0  0  0  0  0  0  0
  -28.9010   12.1190    5.9880 C   0  0  0  0  0  0  0  0  0  0  0  0
  -27.5170    8.8620    6.9520 C   0  0  0  0  0  0  0  0  0  0  0  0
  -31.2620   10.9220    7.1840 C   0  0  0  0  0  0  0  0  0  0  0  0
  -28.8980   10.8050    6.5420 C   0  0  0  0  0  0  0  0  0  0  0  0
  -32.4740    8.9860    7.2310 C   0  0  0  0  0  0  0  0  0  0  0  0
  -33.7130    8.2560    7.6030 N   0  0  0  0  0  0  0  0  0  0  0  0
  -31.3110    8.0870    7.0380 C   0  0  0  0  0  0  0  0  0  0  0  0
  -35.1650    6.4120    7.9990 C   0  0  0  0  0  0  0  0  0  0  0  0
  -26.1360    8.5910    6.6300 C   0  0  0  0  0  0  0  0  0  0  0  0
  -27.6840    6.7310    7.9760 C   0  0  0  0  0  0  0  0  0  0  0  0
  -26.5310   10.6420    5.8560 C   0  0  0  0  0  0  0  0  0  0  0  0
  -27.6860   10.0800    6.5160 C   0  0  0  0  0  0  0  0  0  0  0  0
  1 21  1  0
  2 18  1  0
  2 20  1  0
  2  4  1  0
  3 22  1  0
  5 11  1  0
  6 22  2  0
  7  8  4  0
  7 23  4  0
  8 13  4  0
  9  3  2  0
 10 12  1  0
 13 16  4  0
 14  6  1  0
 15  5  1  0
 15 10  1  0
 17 18  1  0
 17 10  1  0
 19 17  1  0
 19 11  1  0
 21 14  1  0
 21  9  1  0
 23  1  2  0
 23 24  4  0
 24 16  4  0
 24 14  2  0
M  END
$$$$

     RDKit          3D

 21 23  0  0  0  0  0  0  0  0999 V2000
  -27.7630   12.6340    5.4030 C   0  0  0  0  0  0  0  0  0  0  0  0
  -32.2230   10.1760    8.1150 C   0  0  0  0  0  0  0  0  0  0  0  0
  -33.8580    6.8420    7.3230 C   0  0  0  0  0  0  0  0  0  0  0  0
  -35.1420    6.3090    7.9630 C   0  0  0  0  0  0  0  0  0  0  0  0
  -30.0310   10.3450    7.1530 O   0  0  0  0  0  0  0  0  0  0  0  0
  -25.6000    9.6150    5.9580 N   0  0  0  0  0  0  0  0  0  0  0  0
  -28.9420   12.1510    5.9860 C   0  0  0  0  0  0  0  0  0  0  0  0
  -26.1460    8.5080    6.6460 C   0  0  0  0  0  0  0  0  0  0  0  0
  -27.4760    8.8310    6.9900 C   0  0  0  0  0  0  0  0  0  0  0  0
  -32.3800    8.8410    7.3710 C   0  0  0  0  0  0  0  0  0  0  0  0
  -27.7290    6.7090    8.0300 C   0  0  0  0  0  0  0  0  0  0  0  0
  -26.6110   11.8860    5.3640 C   0  0  0  0  0  0  0  0  0  0  0  0
  -33.7220    8.2050    7.5870 N   0  0  0  0  0  0  0  0  0  0  0  0
  -31.2870   11.0740    7.4330 C   0  0  0  0  0  0  0  0  0  0  0  0
  -28.9130   10.8560    6.5440 C   0  0  0  0  0  0  0  0  0  0  0  0
  -26.3880    6.4070    7.7130 C   0  0  0  0  0  0  0  0  0  0  0  0
  -25.5860    7.3170    6.9810 C   0  0  0  0  0  0  0  0  0  0  0  0
  -28.2920    7.9030    7.6640 C   0  0  0  0  0  0  0  0  0  0  0  0
  -26.5850   10.6240    5.8780 C   0  0  0  0  0  0  0  0  0  0  0  0
  -33.5030   10.9430    8.1780 O   0  0  0  0  0  0  0  0  0  0  0  0
  -27.7700   10.0910    6.4970 C   0  0  0  0  0  0  0  0  0  0  0  0
  1  7  4  0
  2 20  1  0
  3 13  1  0
  3  4  1  0
  5 14  1  0
  6  8  1  0
  7 15  4  0
  8 17  1  0
  8  9  1  0
  9 18  1  0
 10 13  1  0
 10  2  1  0
 12  1  4  0
 12 19  4  0
 14  2  1  0
 15  5  1  0
 16 11  1  0
 17 16  2  0
 18 11  2  0
 19  6  2  0
 19 21  4  0
 21 15  4  0
 21  9  2  0
M  END
$$$$

     RDKit          3D

 29 33  0  0  0  0  0  0  0  0999 V2000
  -28.2850    7.9470    7.5940 C   0  0  0  0  0  0  0  0  0  0  0  0
  -26.4370    6.4660    7.6980 C   0  0  0  0  0  0  0  0  0  0  0  0
  -27.7670   10.1430    6.5070 C   0  0  0  0  0  0  0  0  0  0  0  0
  -33.4720   10.9300    8.1650 O   0  0  0  0  0  0  0  0  0  0  0  0
  -33.6880    8.2560    7.6330 N   0  0  0  0  0  0  0  0  0  0  0  0
  -25.5700    9.6290    6.0220 N   0  0  0  0  0  0  0  0  0  0  0  0
  -32.5290    6.3090    7.0860 C   0  0  0  0  0  0  0  0  0  0  0  0
  -32.1280    6.0020    8.4790 O   0  0  0  0  0  0  0  0  0  0  0  0
  -28.9180   12.1750    6.0100 C   0  0  0  0  0  0  0  0  0  0  0  0
  -27.7470   12.6190    5.4030 C   0  0  0  0  0  0  0  0  0  0  0  0
  -34.9360    4.8580    8.0940 C   0  0  0  0  0  0  0  0  0  0  0  0
  -26.5690   10.5420    5.8880 C   0  0  0  0  0  0  0  0  0  0  0  0
  -33.9880    6.8180    7.1610 C   0  0  0  0  0  0  0  0  0  0  0  0
  -32.4750    8.8310    7.1840 C   0  0  0  0  0  0  0  0  0  0  0  0
  -35.1960    6.3240    7.9580 C   0  0  0  0  0  0  0  0  0  0  0  0
  -31.9780    7.5220    5.1290 O   0  0  0  0  0  0  0  0  0  0  0  0
  -28.9180   10.8270    6.5620 C   0  0  0  0  0  0  0  0  0  0  0  0
  -32.2790   10.1770    7.9860 C   0  0  0  0  0  0  0  0  0  0  0  0
  -27.7000    6.7380    8.0010 C   0  0  0  0  0  0  0  0  0  0  0  0
  -24.4600    9.7600    5.6720 O   0  0  0  0  0  0  0  0  0  0  0  0
  -26.5970   11.8730    5.3660 C   0  0  0  0  0  0  0  0  0  0  0  0
  -27.5560    8.8500    6.9700 C   0  0  0  0  0  0  0  0  0  0  0  0
  -31.8010    7.5200    6.6170 C   0  0  0  0  0  0  0  0  0  0  0  0
  -32.6010    4.7870    8.8950 C   0  0  0  0  0  0  0  0  0  0  0  0
  -30.0630   10.3650    7.2130 O   0  0  0  0  0  0  0  0  0  0  0  0
  -33.9460    4.5720    9.0930 O   0  0  0  0  0  0  0  0  0  0  0  0
  -25.6100    7.3620    6.9990 C   0  0  0  0  0  0  0  0  0  0  0  0
  -31.2950   11.0430    7.1800 C   0  0  0  0  0  0  0  0  0  0  0  0
  -26.1910    8.5330    6.6480 C   0  0  0  0  0  0  0  0  0  0  0  0
  1 19  4  0
  2 19  4  0
  3 17  4  0
  3 22  4  0
  6 29  4  0
  7 13  1  0
  7  8  1  0
  8 24  1  0
  9 17  4  0
 10  9  4  0
 11 26  1  0
 12  6  4  0
 12  3  4  0
 13  5  1  0
 13 15  1  0
 14  5  2  0
 14 18  1  0
 15 11  1  0
 17 25  1  0
 18  4  1  0
 20  6  1  0
 21 10  4  0
 21 12  4  0
 22  1  4  0
 23 16  1  0
 23  7  1  0
 23 14  1  0
 24 26  1  0
 27  2  4  0
 28 25  1  0
 28 18  1  0
 29 22  4  0
 29 27  4  0
M  END
$$$$

     RDKit          3D

 27 29  0  0  0  0  0  0  0  0999 V2000
  -35.1490    6.3200    7.9560 C   0  0  0  0  0  0  0  0  0  0  0  0
  -28.8300   10.8710    6.5080 C   0  0  0  0  0  0  0  0  0  0  0  0
  -33.7430    8.2840    7.6030 N   0  0  0  0  0  0  0  0  0  0  0  0
  -27.7560    6.7390    8.0220 C   0  0  0  0  0  0  0  0  0  0  0  0
  -27.6500   10.1120    6.4640 C   0  0  0  0  0  0  0  0  0  0  0  0
  -25.3340   10.1070    5.7850 N   0  0  0  0  0  0  0  0  0  0  0  0
  -26.4580    6.3970    7.7390 C   0  0  0  0  0  0  0  0  0  0  0  0
  -34.0290    6.9230    7.2190 C   0  0  0  0  0  0  0  0  0  0  0  0
  -32.8770    5.9980    7.5240 C   0  0  0  0  0  0  0  0  0  0  0  0
  -24.1110    8.4480    6.2400 O   0  0  0  0  0  0  0  0  0  0  0  0
  -32.2290   10.2420    8.0340 C   0  0  0  0  0  0  0  0  0  0  0  0
  -26.6170   11.9150    5.3340 C   0  0  0  0  0  0  0  0  0  0  0  0
  -25.6330    7.2080    6.9910 C   0  0  0  0  0  0  0  0  0  0  0  0
  -28.7130    5.8840    8.7400 C   0  0  0  0  0  0  0  0  0  0  0  0
  -26.1760    8.3060    6.6690 C   0  0  0  0  0  0  0  0  0  0  0  0
  -25.1890    8.9470    6.2910 C   0  0  0  0  0  0  0  0  0  0  0  0
  -29.9000   10.3590    7.1440 O   0  0  0  0  0  0  0  0  0  0  0  0
  -34.7420    4.9690    8.2910 C   0  0  0  0  0  0  0  0  0  0  0  0
  -28.9310   12.1590    6.0410 C   0  0  0  0  0  0  0  0  0  0  0  0
  -33.4870    4.7380    7.7090 O   0  0  0  0  0  0  0  0  0  0  0  0
  -27.4030    8.8010    6.9910 C   0  0  0  0  0  0  0  0  0  0  0  0
  -26.5490   10.6770    5.8920 C   0  0  0  0  0  0  0  0  0  0  0  0
  -33.4760   10.9970    8.2150 O   0  0  0  0  0  0  0  0  0  0  0  0
  -32.4870    9.0010    7.2880 C   0  0  0  0  0  0  0  0  0  0  0  0
  -30.0620    6.0600    8.4580 O   0  0  0  0  0  0  0  0  0  0  0  0
  -28.2990    7.9590    7.6270 C   0  0  0  0  0  0  0  0  0  0  0  0
  -27.7470   12.6600    5.3930 C   0  0  0  0  0  0  0  0  0  0  0  0
  1 18  1  0
  2 17  1  0
  4 14  1  0
  5  2  4  0
  5 21  4  0
  6 22  4  0
  6 16  4  0
  7  4  4  0
  8  9  1  0
  8  3  1  0
  8  1  1  0
  9 20  1  0
 10 16  2  0
 11 23  1  0
 12 27  4  0
 12 22  4  0
 13  7  4  0
 15 13  4  0
 15 21  4  0
 16 15  4  0
 19  2  4  0
 20 18  1  0
 21 26  4  0
 22  5  4  0
 24  3  2  3
 24 11  1  0
 25 14  1  0
 26  4  4  0
 27 19  4  0
M  END
$$$$

     RDKit          3D

 37 40  0  0  0  0  0  0  0  0999 V2000
  -33.7850    8.1950    7.6360 N   0  0  0  0  0  0  0  0  0  0  0  0
  -28.2910    7.9690    7.6550 C   0  0  0  0  0  0  0  0  0  0  0  0
  -36.7630    4.3300   10.2680 C   0  0  0  0  0  0  0  0  0  0  0  0
  -34.4090    3.8550    9.5290 C   0  0  0  0  0  0  0  0  0  0  0  0
  -30.9960    4.9680    9.0010 N   0  0  0  0  0  0  0  0  0  0  0  0
  -25.6170    7.3260    7.0160 C   0  0  0  0  0  0  0  0  0  0  0  0
  -26.3720    6.4280    7.6930 C   0  0  0  0  0  0  0  0  0  0  0  0
  -24.4060    5.5270    6.8390 F   0  0  0  0  0  0  0  0  0  0  0  0
  -34.5850    5.0790    8.6300 C   0  0  0  0  0  0  0  0  0  0  0  0
  -26.7000   10.5880    5.7800 C   0  0  0  0  0  0  0  0  0  0  0  0
  -25.1110   13.5710    5.0570 O   0  0  0  0  0  0  0  0  0  0  0  0
  -27.7590   10.1180    6.5290 C   0  0  0  0  0  0  0  0  0  0  0  0
  -24.3360    6.8550    6.9780 C   0  0  0  0  0  0  0  0  0  0  0  0
  -25.5530   12.1060    3.3800 N   0  0  0  0  0  0  0  0  0  0  0  0
  -33.1600    5.6010    8.4790 C   0  0  0  0  0  0  0  0  0  0  0  0
  -32.2850   10.1630    8.0750 C   0  0  0  0  0  0  0  0  0  0  0  0
  -23.6980    7.3560    6.3410 F   0  0  0  0  0  0  0  0  0  0  0  0
  -28.9180   10.8350    6.5930 C   0  0  0  0  0  0  0  0  0  0  0  0
  -23.7760    6.8420    8.1960 F   0  0  0  0  0  0  0  0  0  0  0  0
  -30.0190   10.3330    7.2610 O   0  0  0  0  0  0  0  0  0  0  0  0
  -33.0810    6.8760    7.6890 C   0  0  0  0  0  0  0  0  0  0  0  0
  -35.2280    6.3110    8.0340 C   0  0  0  0  0  0  0  0  0  0  0  0
  -28.9250   12.1270    6.0430 C   0  0  0  0  0  0  0  0  0  0  0  0
  -26.1300    8.5750    6.6560 C   0  0  0  0  0  0  0  0  0  0  0  0
  -25.6200    9.5700    5.8600 N   0  0  0  0  0  0  0  0  0  0  0  0
  -26.6590   11.9190    5.3170 C   0  0  0  0  0  0  0  0  0  0  0  0
  -25.5650   12.5710    4.6060 C   0  0  0  0  0  0  0  0  0  0  0  0
  -32.9390    3.7260    9.6590 N   0  0  0  0  0  0  0  0  0  0  0  0
  -34.2060    6.3940    6.8680 C   0  0  0  0  0  0  0  0  0  0  0  0
  -32.5750    9.0750    7.2510 C   0  0  0  0  0  0  0  0  0  0  0  0
  -33.4950   10.9590    8.1450 O   0  0  0  0  0  0  0  0  0  0  0  0
  -31.1800   11.0850    7.5950 C   0  0  0  0  0  0  0  0  0  0  0  0
  -32.2920    4.7520    9.0230 C   0  0  0  0  0  0  0  0  0  0  0  0
  -36.7560    4.5200    9.0060 O   0  0  0  0  0  0  0  0  0  0  0  0
  -27.7490    6.7420    8.0000 C   0  0  0  0  0  0  0  0  0  0  0  0
  -27.4630    8.8420    6.9610 C   0  0  0  0  0  0  0  0  0  0  0  0
  -27.7610   12.6280    5.4340 C   0  0  0  0  0  0  0  0  0  0  0  0
  2 35  4  0
  4 28  4  0
  5 33  1  0
  6  7  4  0
  7 35  4  0
  8 13  1  0
  9  4  4  0
 10 25  2  0
 10 12  1  0
 12 18  2  0
 12 36  1  0
 13  6  1  0
 13 19  1  0
 14 27  1  0
 15  9  4  0
 15 33  4  0
 16 31  1  0
 17 13  1  0
 18 20  1  0
 20 32  1  0
 21  1  1  0
 21 15  1  0
 22  9  1  0
 23 18  1  0
 24 36  4  0
 24  6  4  0
 25 24  1  0
 26 27  1  0
 26 37  1  0
 26 10  1  0
 27 11  2  0
 29 21  1  0
 29 22  1  0
 30  1  1  0
 30 16  1  0
 32 16  1  0
 33 28  4  0
 34  3  2  0
 36  2  4  0
 37 23  2  0
M  END
$$$$

     RDKit          3D

 27 30  0  0  0  0  0  0  0  0999 V2000
  -26.4140    6.4460    7.6870 C   0  0  0  0  0  0  0  0  0  0  0  0
  -27.6090   12.6000    5.3370 C   0  0  0  0  0  0  0  0  0  0  0  0
  -29.1790   10.2280    6.6370 C   0  0  0  0  0  0  0  0  0  0  0  0
  -34.2900    5.9860    6.6900 C   0  0  0  0  0  0  0  0  0  0  0  0
  -26.1200    8.5600    6.6400 C   0  0  0  0  0  0  0  0  0  0  0  0
  -30.2250   10.0410    7.5530 O   0  0  0  0  0  0  0  0  0  0  0  0
  -31.3030   10.8040    7.2700 C   0  0  0  0  0  0  0  0  0  0  0  0
  -27.5010    8.8410    6.9780 C   0  0  0  0  0  0  0  0  0  0  0  0
  -32.4800    8.8260    7.1700 C   0  0  0  0  0  0  0  0  0  0  0  0
  -26.7590   10.5870    5.9630 C   0  0  0  0  0  0  0  0  0  0  0  0
  -32.3300   10.0410    8.0040 C   0  0  0  0  0  0  0  0  0  0  0  0
  -28.2650    7.9540    7.6620 C   0  0  0  0  0  0  0  0  0  0  0  0
  -33.7080    8.2340    7.6200 N   0  0  0  0  0  0  0  0  0  0  0  0
  -27.7020    6.7200    7.9810 C   0  0  0  0  0  0  0  0  0  0  0  0
  -27.6410    4.4510    9.1520 O   0  0  0  0  0  0  0  0  0  0  0  0
  -27.7610   10.1130    6.5170 C   0  0  0  0  0  0  0  0  0  0  0  0
  -25.5660    4.4890    8.2990 O   0  0  0  0  0  0  0  0  0  0  0  0
  -29.3380   11.5120    6.6040 C   0  0  0  0  0  0  0  0  0  0  0  0
  -33.8000    6.8880    7.7290 C   0  0  0  0  0  0  0  0  0  0  0  0
  -33.5000   10.9520    8.1340 O   0  0  0  0  0  0  0  0  0  0  0  0
  -26.5020   11.7360    5.3430 C   0  0  0  0  0  0  0  0  0  0  0  0
  -28.7320   12.2520    5.8910 C   0  0  0  0  0  0  0  0  0  0  0  0
  -25.6020    7.3970    6.9970 C   0  0  0  0  0  0  0  0  0  0  0  0
  -35.1880    6.3480    7.9860 C   0  0  0  0  0  0  0  0  0  0  0  0
  -25.6080    9.6680    6.0060 O   0  0  0  0  0  0  0  0  0  0  0  0
  -26.4500    5.0610    8.5570 C   0  0  0  0  0  0  0  0  0  0  0  0
  -33.3720    5.9750    5.7200 O   0  0  0  0  0  0  0  0  0  0  0  0
  1 14  4  0
  1 26  1  0
  2 21  1  0
  2 22  2  0
  3  6  1  0
  4 27  1  0
  4 19  1  0
  4 24  1  0
  5  8  4  0
  5 23  4  0
  7  6  1  0
  7 11  1  0
  8 12  4  0
  9 13  1  0
  9 11  1  0
 10 25  4  0
 10 16  4  0
 11 20  1  0
 12 14  4  0
 16  3  1  0
 16  8  4  0
 17 26  2  0
 18  3  1  0
 19 13  1  0
 19 24  1  0
 21 10  1  0
 22 18  1  0
 23  1  4  0
 25  5  4  0
 26 15  1  0
M  END
$$$$

     RDKit          3D

 24 27  0  0  0  0  0  0  0  0999 V2000
  -26.5850   10.6620    5.9000 C   0  0  0  0  0  0  0  0  0  0  0  0
  -31.8690    9.2200    7.0420 C   0  0  0  0  0  0  0  0  0  0  0  0
  -34.9700    6.2150    7.7700 C   0  0  0  0  0  0  0  0  0  0  0  0
  -27.6560    6.6970    8.0180 C   0  0  0  0  0  0  0  0  0  0  0  0
  -25.5610    7.3530    6.9960 C   0  0  0  0  0  0  0  0  0  0  0  0
  -28.8860   12.1370    6.0220 C   0  0  0  0  0  0  0  0  0  0  0  0
  -24.5510    9.6310    6.3280 C   0  0  0  0  0  0  0  0  0  0  0  0
  -27.4930    8.8790    6.9200 C   0  0  0  0  0  0  0  0  0  0  0  0
  -28.2700    7.9470    7.6740 C   0  0  0  0  0  0  0  0  0  0  0  0
  -26.1600    8.5760    6.6740 C   0  0  0  0  0  0  0  0  0  0  0  0
  -31.1800   11.3310    7.4690 O   0  0  0  0  0  0  0  0  0  0  0  0
  -32.1580   10.3850    8.0100 C   0  0  0  0  0  0  0  0  0  0  0  0
  -28.9620   10.8840    6.5610 C   0  0  0  0  0  0  0  0  0  0  0  0
  -32.7300    8.1190    7.0520 C   0  0  0  0  0  0  0  0  0  0  0  0
  -33.7650    8.1650    7.6180 N   0  0  0  0  0  0  0  0  0  0  0  0
  -30.0680   10.4270    7.0720 N   0  0  0  0  0  0  0  0  0  0  0  0
  -26.6080   11.8990    5.3300 C   0  0  0  0  0  0  0  0  0  0  0  0
  -33.8350    6.7570    8.1910 C   0  0  0  0  0  0  0  0  0  0  0  0
  -27.7600   10.1740    6.4570 C   0  0  0  0  0  0  0  0  0  0  0  0
  -30.7140    9.3660    6.5010 C   0  0  0  0  0  0  0  0  0  0  0  0
  -26.3700    6.4500    7.6840 C   0  0  0  0  0  0  0  0  0  0  0  0
  -27.8130   12.6470    5.3870 C   0  0  0  0  0  0  0  0  0  0  0  0
  -33.4660   10.9670    8.1580 O   0  0  0  0  0  0  0  0  0  0  0  0
  -25.6330    9.6710    5.9930 N   0  0  0  0  0  0  0  0  0  0  0  0
  1 24  4  0
  1 19  4  0
  2 14  2  3
  2 12  1  0
  3 18  1  0
  5 21  4  0
  6 13  4  0
  8  9  4  0
  9  4  4  0
 10  8  4  0
 10  5  4  0
 11 12  1  0
 12 23  1  0
 13 16  1  0
 14 15  1  0
 15 18  1  0
 16 11  1  0
 17 22  4  0
 17  1  4  0
 19 13  4  0
 19  8  4  0
 20  2  1  0
 20 16  1  0
 21  4  4  0
 22  6  4  0
 24  7  1  0
 24 10  4  0
M  END
$$$$

     RDKit          3D

 21 23  0  0  0  0  0  0  0  0999 V2000
  -28.9400   12.1360    6.0100 C   0  0  0  0  0  0  0  0  0  0  0  0
  -27.6650    6.7140    8.0010 C   0  0  0  0  0  0  0  0  0  0  0  0
  -26.3710    6.4530    7.6530 C   0  0  0  0  0  0  0  0  0  0  0  0
  -26.1380    8.5820    6.6290 C   0  0  0  0  0  0  0  0  0  0  0  0
  -25.5640    7.3660    6.9530 C   0  0  0  0  0  0  0  0  0  0  0  0
  -35.1090    6.2420    7.9090 C   0  0  0  0  0  0  0  0  0  0  0  0
  -27.8110   12.6390    5.3700 C   0  0  0  0  0  0  0  0  0  0  0  0
  -28.9640   10.8700    6.5170 C   0  0  0  0  0  0  0  0  0  0  0  0
  -27.5180    8.9060    7.0120 C   0  0  0  0  0  0  0  0  0  0  0  0
  -33.4760   10.8980    8.1770 O   0  0  0  0  0  0  0  0  0  0  0  0
  -25.6600    9.6910    6.0070 N   0  0  0  0  0  0  0  0  0  0  0  0
  -26.5790   10.5710    5.9080 C   0  0  0  0  0  0  0  0  0  0  0  0
  -27.7480   10.0890    6.5420 C   0  0  0  0  0  0  0  0  0  0  0  0
  -33.6810    8.2240    7.6150 N   0  0  0  0  0  0  0  0  0  0  0  0
  -32.4750    8.9250    7.2570 C   0  0  0  0  0  0  0  0  0  0  0  0
  -32.2740   10.2190    8.0190 C   0  0  0  0  0  0  0  0  0  0  0  0
  -33.9640    6.8150    7.1480 C   0  0  0  0  0  0  0  0  0  0  0  0
  -31.2940   11.1190    7.1750 C   0  0  0  0  0  0  0  0  0  0  0  0
  -30.1060   10.3880    7.1160 O   0  0  0  0  0  0  0  0  0  0  0  0
  -28.2830    7.9340    7.6140 C   0  0  0  0  0  0  0  0  0  0  0  0
  -26.5830   11.9170    5.3550 C   0  0  0  0  0  0  0  0  0  0  0  0
  1  8  1  0
  3  2  4  0
  4  5  4  0
  4  9  4  0
  5  3  4  0
  7  1  2  0
  8 13  1  0
  8 19  1  0
  9 20  4  0
 11  4  2  0
 12 11  1  0
 12 13  1  0
 13  9  2  0
 15 14  1  0
 15 16  1  0
 16 10  1  0
 17 14  1  0
 17  6  1  0
 18 16  1  0
 19 18  1  0
 20  2  4  0
 21  7  1  0
 21 12  2  0
M  END
$$$$

     RDKit          3D

 29 32  0  0  0  0  0  0  0  0999 V2000
  -32.3470    8.8630    7.6590 C   0  0  0  0  0  0  0  0  0  0  0  0
  -32.8860    5.3490    9.7150 C   0  0  0  0  0  0  0  0  0  0  0  0
  -31.9090    4.7590    8.9870 C   0  0  0  0  0  0  0  0  0  0  0  0
  -27.7120   12.6680    5.3730 C   0  0  0  0  0  0  0  0  0  0  0  0
  -33.7740    6.7750    7.6260 C   0  0  0  0  0  0  0  0  0  0  0  0
  -28.2880    7.9450    7.6390 C   0  0  0  0  0  0  0  0  0  0  0  0
  -33.7220    8.2420    7.5900 N   0  0  0  0  0  0  0  0  0  0  0  0
  -33.4040    6.2820    6.2610 C   0  0  0  0  0  0  0  0  0  0  0  0
  -27.4420    8.8150    6.9820 C   0  0  0  0  0  0  0  0  0  0  0  0
  -27.7900   10.1040    6.5270 C   0  0  0  0  0  0  0  0  0  0  0  0
  -28.0420    4.7250    9.2340 O   0  0  0  0  0  0  0  0  0  0  0  0
  -33.4690   10.9200    8.1050 O   0  0  0  0  0  0  0  0  0  0  0  0
  -26.6070   10.5680    5.8940 C   0  0  0  0  0  0  0  0  0  0  0  0
  -27.7300    6.7520    8.0120 C   0  0  0  0  0  0  0  0  0  0  0  0
  -30.0860   10.3100    7.2030 O   0  0  0  0  0  0  0  0  0  0  0  0
  -26.5480   11.8470    5.3410 C   0  0  0  0  0  0  0  0  0  0  0  0
  -26.4070    6.4760    7.6960 C   0  0  0  0  0  0  0  0  0  0  0  0
  -28.9330   12.1710    5.9880 C   0  0  0  0  0  0  0  0  0  0  0  0
  -28.5160    5.6730    8.6720 C   0  0  0  0  0  0  0  0  0  0  0  0
  -29.9670    5.7260    8.7030 N   0  0  0  0  0  0  0  0  0  0  0  0
  -33.0780    4.5980    8.5030 O   0  0  0  0  0  0  0  0  0  0  0  0
  -28.9150   10.8790    6.5430 C   0  0  0  0  0  0  0  0  0  0  0  0
  -26.1720    8.5130    6.5830 C   0  0  0  0  0  0  0  0  0  0  0  0
  -30.6720    4.5690    8.9510 N   0  0  0  0  0  0  0  0  0  0  0  0
  -35.1600    6.3080    7.9660 C   0  0  0  0  0  0  0  0  0  0  0  0
  -25.5980    9.5920    5.9290 N   0  0  0  0  0  0  0  0  0  0  0  0
  -25.5890    7.3570    7.0010 C   0  0  0  0  0  0  0  0  0  0  0  0
  -31.3490   10.9180    7.1370 C   0  0  0  0  0  0  0  0  0  0  0  0
  -32.2420   10.2530    8.1800 C   0  0  0  0  0  0  0  0  0  0  0  0
  1 29  1  0
  3 24  1  0
  3  2  1  0
  4 18  4  0
  5 25  1  0
  6 14  1  0
  7  5  1  0
  7  1  1  0
  8  5  1  0
  9  6  2  0
 10 22  4  0
 10  9  1  0
 13 26  1  0
 13 10  4  0
 14 19  1  0
 16  4  4  0
 16 13  4  0
 17 14  1  0
 18 22  4  0
 19 20  1  0
 19 11  2  0
 20 24  1  0
 21  3  1  0
 21  2  1  0
 22 15  1  0
 23  9  1  0
 23 27  1  0
 26 23  2  0
 27 17  2  0
 28 15  1  0
 28 29  1  0
 29 12  1  0
M  END
$$$$

     RDKit          3D

 27 30  0  0  0  0  0  0  0  0999 V2000
  -26.4100    6.4370    7.6560 C   0  0  0  0  0  0  0  0  0  0  0  0
  -28.9110   10.9450    6.6360 C   0  0  0  0  0  0  0  0  0  0  0  0
  -34.0660    5.8730    7.1210 C   0  0  0  0  0  0  0  0  0  0  0  0
  -28.9430   12.1590    5.9810 C   0  0  0  0  0  0  0  0  0  0  0  0
  -33.6930    8.2170    7.6100 N   0  0  0  0  0  0  0  0  0  0  0  0
  -35.1630    6.2830    8.0270 C   0  0  0  0  0  0  0  0  0  0  0  0
  -32.3050   10.1460    7.9440 C   0  0  0  0  0  0  0  0  0  0  0  0
  -31.3250   10.7250    6.8520 C   0  0  0  0  0  0  0  0  0  0  0  0
  -27.7760   12.6000    5.4000 C   0  0  0  0  0  0  0  0  0  0  0  0
  -26.1370    8.6390    6.6520 C   0  0  0  0  0  0  0  0  0  0  0  0
  -32.1560    5.1280    8.5480 O   0  0  0  0  0  0  0  0  0  0  0  0
  -32.5190    9.0890    7.2380 C   0  0  0  0  0  0  0  0  0  0  0  0
  -25.5660    7.3740    6.9600 C   0  0  0  0  0  0  0  0  0  0  0  0
  -33.0940    7.0070    7.4300 C   0  0  0  0  0  0  0  0  0  0  0  0
  -34.3080    4.4360    7.6390 C   0  0  0  0  0  0  0  0  0  0  0  0
  -33.4730   10.9550    8.1680 O   0  0  0  0  0  0  0  0  0  0  0  0
  -25.6430    9.7560    5.9180 N   0  0  0  0  0  0  0  0  0  0  0  0
  -26.6280   11.8700    5.3250 C   0  0  0  0  0  0  0  0  0  0  0  0
  -27.6930    6.7450    8.0080 C   0  0  0  0  0  0  0  0  0  0  0  0
  -30.6540   11.7110    7.7760 C   0  0  0  0  0  0  0  0  0  0  0  0
  -27.7760   10.0970    6.5310 C   0  0  0  0  0  0  0  0  0  0  0  0
  -33.3320    4.4420    8.8420 N   0  0  0  0  0  0  0  0  0  0  0  0
  -28.2400    7.9420    7.6750 C   0  0  0  0  0  0  0  0  0  0  0  0
  -29.9580   10.4910    7.4980 O   0  0  0  0  0  0  0  0  0  0  0  0
  -27.4820    8.8810    6.9680 C   0  0  0  0  0  0  0  0  0  0  0  0
  -26.6480   10.6370    5.9250 C   0  0  0  0  0  0  0  0  0  0  0  0
  -31.8990    6.5630    8.4390 C   0  0  0  0  0  0  0  0  0  0  0  0
  1 19  1  0
  2 24  1  0
  3 14  1  0
  3 15  1  0
  3  6  1  0
  4  2  4  0
  7 16  1  0
  8 20  1  0
  8  7  1  0
  9  4  4  0
 10 13  1  0
 10 25  1  0
 11 22  1  0
 12  5  1  0
 12  7  1  0
 13  1  2  0
 14  5  1  0
 14 27  1  0
 15 22  1  0
 17 26  1  0
 17 10  2  0
 18  9  4  0
 18 26  4  0
 21  2  4  0
 21 25  1  0
 23 19  2  0
 24 20  1  0
 25 23  1  0
 26 21  4  0
 27 11  1  0
M  END
$$$$

     RDKit          3D

 37 41  0  0  0  0  0  0  0  0999 V2000
  -33.3720    5.0150   10.3480 C   0  0  0  0  0  0  0  0  0  0  0  0
  -36.0630    5.0960    9.2770 C   0  0  0  0  0  0  0  0  0  0  0  0
  -28.9030   12.1550    5.9610 C   0  0  0  0  0  0  0  0  0  0  0  0
  -35.0020    5.0990    8.3770 C   0  0  0  0  0  0  0  0  0  0  0  0
  -31.2020   10.8220    7.5120 C   0  0  0  0  0  0  0  0  0  0  0  0
  -25.6280    7.3250    7.0240 C   0  0  0  0  0  0  0  0  0  0  0  0
  -28.2960    7.9910    7.6410 C   0  0  0  0  0  0  0  0  0  0  0  0
  -26.8120   10.5160    5.7170 C   0  0  0  0  0  0  0  0  0  0  0  0
  -36.6090    3.7340   10.9350 O   0  0  0  0  0  0  0  0  0  0  0  0
  -32.2720   10.2260    8.3170 C   0  0  0  0  0  0  0  0  0  0  0  0
  -32.4760    8.8520    7.7020 C   0  0  0  0  0  0  0  0  0  0  0  0
  -27.8030   12.6240    5.3660 C   0  0  0  0  0  0  0  0  0  0  0  0
  -34.4530    4.0560    7.7610 O   0  0  0  0  0  0  0  0  0  0  0  0
  -32.1080    6.8860    5.7400 O   0  0  0  0  0  0  0  0  0  0  0  0
  -26.6720   11.8200    5.3230 C   0  0  0  0  0  0  0  0  0  0  0  0
  -31.5870    9.5420    6.7600 C   0  0  0  0  0  0  0  0  0  0  0  0
  -34.3520    4.3270   10.7850 N   0  0  0  0  0  0  0  0  0  0  0  0
  -32.3440    6.8380    6.9690 C   0  0  0  0  0  0  0  0  0  0  0  0
  -25.9210    8.5240    6.6190 C   0  0  0  0  0  0  0  0  0  0  0  0
  -33.7200    8.2460    7.5960 N   0  0  0  0  0  0  0  0  0  0  0  0
  -29.8510   10.7210    7.7190 O   0  0  0  0  0  0  0  0  0  0  0  0
  -31.5020    6.6290    7.8850 O   0  0  0  0  0  0  0  0  0  0  0  0
  -33.6750    3.1450   11.2840 C   0  0  0  0  0  0  0  0  0  0  0  0
  -25.1430    9.1430    6.1180 C   0  0  0  0  0  0  0  0  0  0  0  0
  -23.9830    8.8390    6.1230 O   0  0  0  0  0  0  0  0  0  0  0  0
  -27.7780   10.1410    6.5410 C   0  0  0  0  0  0  0  0  0  0  0  0
  -33.7870    6.8870    7.2150 C   0  0  0  0  0  0  0  0  0  0  0  0
  -28.9170   10.9840    6.7540 C   0  0  0  0  0  0  0  0  0  0  0  0
  -26.1030   11.7190    3.9330 O   0  0  0  0  0  0  0  0  0  0  0  0
  -27.3870    8.8310    6.9620 C   0  0  0  0  0  0  0  0  0  0  0  0
  -26.0580    9.7150    5.4010 N   0  0  0  0  0  0  0  0  0  0  0  0
  -35.8160    4.4110   10.4570 C   0  0  0  0  0  0  0  0  0  0  0  0
  -35.0830    6.3240    7.8430 C   0  0  0  0  0  0  0  0  0  0  0  0
  -27.7180    6.7260    7.9890 C   0  0  0  0  0  0  0  0  0  0  0  0
  -32.8810    6.4440    4.9120 C   0  0  0  0  0  0  0  0  0  0  0  0
  -33.5150   10.9040    8.1770 O   0  0  0  0  0  0  0  0  0  0  0  0
  -26.4140    6.3990    7.6950 C   0  0  0  0  0  0  0  0  0  0  0  0
  1 17  1  0
  2 32  1  0
  3 28  1  0
  4 13  1  0
  4  2  1  0
  5 21  1  0
  5 10  1  0
  6 37  4  0
  7 34  4  0
  8 31  1  0
  8 26  1  0
 10 36  1  0
 11 20  1  0
 11 10  1  0
 12  3  2  0
 14 18  1  0
 15 29  1  0
 15 12  1  0
 15  8  1  0
 16  5  1  0
 16 11  1  0
 16 10  1  0
 17 23  1  0
 18 27  1  0
 18 22  2  0
 19 30  4  0
 19  6  4  0
 24 25  2  0
 24 19  1  0
 26 28  2  0
 26 30  1  0
 27 20  1  0
 27 33  1  0
 28 21  1  0
 30  7  4  0
 31 24  1  0
 32 17  1  0
 32  9  2  0
 33  4  1  0
 35 14  1  0
 37 34  4  0
M  END
$$$$

     RDKit          3D

 27 32  0  0  0  0  0  0  0  0999 V2000
  -35.1750    6.3010    7.9950 C   0  0  0  0  0  0  0  0  0  0  0  0
  -35.1960    4.8960    7.6600 C   0  0  0  0  0  0  0  0  0  0  0  0
  -28.9030   12.1760    5.9680 C   0  0  0  0  0  0  0  0  0  0  0  0
  -31.0900    7.9090    7.6600 C   0  0  0  0  0  0  0  0  0  0  0  0
  -33.7170    8.2170    7.6140 N   0  0  0  0  0  0  0  0  0  0  0  0
  -27.2560    9.0680    6.6530 C   0  0  0  0  0  0  0  0  0  0  0  0
  -26.4070    6.4510    7.6490 C   0  0  0  0  0  0  0  0  0  0  0  0
  -29.6770    8.4920    7.5230 C   0  0  0  0  0  0  0  0  0  0  0  0
  -28.2900    7.9300    7.6600 C   0  0  0  0  0  0  0  0  0  0  0  0
  -32.4000    8.8750    7.3140 C   0  0  0  0  0  0  0  0  0  0  0  0
  -27.7530    6.7530    7.9870 C   0  0  0  0  0  0  0  0  0  0  0  0
  -32.3090   10.1770    8.0560 C   0  0  0  0  0  0  0  0  0  0  0  0
  -26.5890   11.8700    5.2960 C   0  0  0  0  0  0  0  0  0  0  0  0
  -25.9320    8.6240    6.4980 C   0  0  0  0  0  0  0  0  0  0  0  0
  -27.3850    9.8090    5.6880 C   0  0  0  0  0  0  0  0  0  0  0  0
  -30.1370   10.2470    6.9540 O   0  0  0  0  0  0  0  0  0  0  0  0
  -33.1130    5.8270    7.2320 C   0  0  0  0  0  0  0  0  0  0  0  0
  -25.6260    7.3690    6.9570 C   0  0  0  0  0  0  0  0  0  0  0  0
  -27.8370   10.0860    6.5580 C   0  0  0  0  0  0  0  0  0  0  0  0
  -31.4270   10.9970    7.1900 C   0  0  0  0  0  0  0  0  0  0  0  0
  -25.4350    9.6390    5.8080 N   0  0  0  0  0  0  0  0  0  0  0  0
  -33.9790    4.5880    6.9510 O   0  0  0  0  0  0  0  0  0  0  0  0
  -27.7660   12.5940    5.4090 C   0  0  0  0  0  0  0  0  0  0  0  0
  -33.4870   10.9150    8.1660 O   0  0  0  0  0  0  0  0  0  0  0  0
  -28.9120   10.8690    6.6320 C   0  0  0  0  0  0  0  0  0  0  0  0
  -34.1030    6.9430    7.0880 C   0  0  0  0  0  0  0  0  0  0  0  0
  -26.2720   10.6080    5.4820 C   0  0  0  0  0  0  0  0  0  0  0  0
  2  1  1  0
  3 25  2  0
  6 14  1  0
  6  9  1  0
  7 11  1  0
  8  4  2  0
  8  9  1  0
  9 11  2  0
 10  5  1  0
 10  4  1  0
 10 12  1  0
 12 24  1  0
 13 23  2  0
 13 27  1  0
 14 18  1  0
 15 19  1  0
 15  6  1  0
 16 20  1  0
 18  7  2  0
 19 25  1  0
 19  6  1  0
 20 12  1  0
 21 14  2  0
 22 17  1  0
 22  2  1  0
 23  3  1  0
 25 16  1  0
 26 17  1  0
 26  5  1  0
 26  1  1  0
 27 15  1  0
 27 21  1  0
M  END
$$$$

     RDKit          3D

 24 26  0  0  0  0  0  0  0  0999 V2000
  -28.2640    7.9380    7.6600 C   0  0  0  0  0  0  0  0  0  0  0  0
  -25.5550    9.6070    6.1580 N   0  0  0  0  0  0  0  0  0  0  0  0
  -24.3380    9.4560    6.0890 C   0  0  0  0  0  0  0  0  0  0  0  0
  -25.6000    7.3290    6.9920 C   0  0  0  0  0  0  0  0  0  0  0  0
  -28.9040   12.1730    6.0070 C   0  0  0  0  0  0  0  0  0  0  0  0
  -26.5760   11.8770    5.3600 C   0  0  0  0  0  0  0  0  0  0  0  0
  -33.4900   10.9830    8.1810 O   0  0  0  0  0  0  0  0  0  0  0  0
  -27.7300    6.7590    7.9690 C   0  0  0  0  0  0  0  0  0  0  0  0
  -27.7440   10.0700    6.4640 C   0  0  0  0  0  0  0  0  0  0  0  0
  -33.7160    8.2320    7.6530 N   0  0  0  0  0  0  0  0  0  0  0  0
  -33.1280    6.2550    6.6520 O   0  0  0  0  0  0  0  0  0  0  0  0
  -32.0330    9.2900    6.4570 C   0  0  0  0  0  0  0  0  0  0  0  0
  -27.5100    8.8480    6.9590 C   0  0  0  0  0  0  0  0  0  0  0  0
  -30.0580   10.2910    6.8020 O   0  0  0  0  0  0  0  0  0  0  0  0
  -31.4860   10.6070    6.6160 C   0  0  0  0  0  0  0  0  0  0  0  0
  -26.1790    8.5660    6.6500 C   0  0  0  0  0  0  0  0  0  0  0  0
  -32.0500   11.2590    8.0320 C   0  0  0  0  0  0  0  0  0  0  0  0
  -32.3970    8.7450    7.7730 C   0  0  0  0  0  0  0  0  0  0  0  0
  -26.5760   10.5490    5.9420 C   0  0  0  0  0  0  0  0  0  0  0  0
  -35.1420    6.3000    8.0000 C   0  0  0  0  0  0  0  0  0  0  0  0
  -26.3950    6.4210    7.7040 C   0  0  0  0  0  0  0  0  0  0  0  0
  -28.9600   10.8370    6.4570 C   0  0  0  0  0  0  0  0  0  0  0  0
  -27.7880   12.6600    5.3770 C   0  0  0  0  0  0  0  0  0  0  0  0
  -33.8640    6.8690    7.4180 C   0  0  0  0  0  0  0  0  0  0  0  0
  1  8  4  0
  2 16  4  0
  3  2  1  0
  4 21  4  0
  5 22  4  0
  6 23  4  0
  6 19  4  0
  9 13  4  0
 10 18  1  0
 11 24  2  0
 12 18  1  0
 13  1  4  0
 15 12  1  0
 15 14  1  0
 15 17  1  0
 16 13  4  0
 16  4  4  0
 17  7  1  0
 19  2  4  0
 19  9  4  0
 21  8  4  0
 22  9  4  0
 22 14  1  0
 23  5  4  0
 24 10  1  0
 24 20  1  0
M  END
$$$$

     RDKit          3D

 21 23  0  0  0  0  0  0  0  0999 V2000
  -33.8940    6.8350    7.2170 C   0  0  0  0  0  0  0  0  0  0  0  0
  -27.7100    6.7640    8.0050 C   0  0  0  0  0  0  0  0  0  0  0  0
  -28.9570   10.8600    6.5260 C   0  0  0  0  0  0  0  0  0  0  0  0
  -25.5510    7.3500    7.0320 C   0  0  0  0  0  0  0  0  0  0  0  0
  -27.7460   12.6580    5.3870 C   0  0  0  0  0  0  0  0  0  0  0  0
  -33.7200    8.2230    7.6250 N   0  0  0  0  0  0  0  0  0  0  0  0
  -26.5840   10.6430    5.8910 C   0  0  0  0  0  0  0  0  0  0  0  0
  -27.4730    8.8980    6.9710 C   0  0  0  0  0  0  0  0  0  0  0  0
  -28.2380    7.9210    7.6750 C   0  0  0  0  0  0  0  0  0  0  0  0
  -31.3340   10.9690    7.1100 C   0  0  0  0  0  0  0  0  0  0  0  0
  -26.3980    6.4070    7.6630 C   0  0  0  0  0  0  0  0  0  0  0  0
  -35.0740    6.2350    7.8800 C   0  0  0  0  0  0  0  0  0  0  0  0
  -26.1310    8.5580    6.6730 C   0  0  0  0  0  0  0  0  0  0  0  0
  -28.9180   12.1420    5.9800 C   0  0  0  0  0  0  0  0  0  0  0  0
  -30.1180   10.3890    7.1230 O   0  0  0  0  0  0  0  0  0  0  0  0
  -32.4320    8.8010    7.4560 C   0  0  0  0  0  0  0  0  0  0  0  0
  -33.4990   10.9300    8.1790 O   0  0  0  0  0  0  0  0  0  0  0  0
  -32.2860   10.1840    8.0240 C   0  0  0  0  0  0  0  0  0  0  0  0
  -27.7680   10.1250    6.5290 C   0  0  0  0  0  0  0  0  0  0  0  0
  -25.5880    9.6600    5.9900 N   0  0  0  0  0  0  0  0  0  0  0  0
  -26.5990   11.9040    5.3390 C   0  0  0  0  0  0  0  0  0  0  0  0
  1  6  1  0
  1 12  1  0
  3 19  4  0
  3 15  1  0
  4 11  1  0
  5 14  4  0
  7 20  2  0
  7 19  4  0
  8  9  1  0
  9  2  1  0
 10 15  1  0
 10 18  1  0
 11  2  2  0
 13  8  1  0
 13  4  2  0
 14  3  4  0
 16  6  1  0
 16 18  1  0
 18 17  1  0
 19  8  2  0
 20 13  1  0
 21  5  4  0
 21  7  4  0
M  END
$$$$

     RDKit          3D

 29 34  0  0  0  0  0  0  0  0999 V2000
  -26.6130   11.9390    5.3370 C   0  0  0  0  0  0  0  0  0  0  0  0
  -25.5860    7.2910    7.0400 C   0  0  0  0  0  0  0  0  0  0  0  0
  -35.0220    4.9140    7.7790 C   0  0  0  0  0  0  0  0  0  0  0  0
  -32.2090   10.2430    7.9760 C   0  0  0  0  0  0  0  0  0  0  0  0
  -26.0700    8.5130    6.7250 C   0  0  0  0  0  0  0  0  0  0  0  0
  -25.2580   10.1050    5.8960 N   0  0  0  0  0  0  0  0  0  0  0  0
  -31.2440   11.1140    7.4440 C   0  0  0  0  0  0  0  0  0  0  0  0
  -33.6930    8.2590    7.5740 N   0  0  0  0  0  0  0  0  0  0  0  0
  -27.7290   12.6300    5.3660 C   0  0  0  0  0  0  0  0  0  0  0  0
  -34.6670    6.3480    6.5090 C   0  0  0  0  0  0  0  0  0  0  0  0
  -33.4470   10.8850    8.1840 O   0  0  0  0  0  0  0  0  0  0  0  0
  -32.3140    9.1410    7.0940 C   0  0  0  0  0  0  0  0  0  0  0  0
  -25.3620    4.3200    8.7060 N   0  0  0  0  0  0  0  0  0  0  0  0
  -25.7650    5.2360    8.1600 C   0  0  0  0  0  0  0  0  0  0  0  0
  -35.1600    6.3800    7.9710 C   0  0  0  0  0  0  0  0  0  0  0  0
  -27.7020   10.0800    6.5180 C   0  0  0  0  0  0  0  0  0  0  0  0
  -32.3290    6.7010    6.2390 O   0  0  0  0  0  0  0  0  0  0  0  0
  -26.5760   10.5950    5.8820 C   0  0  0  0  0  0  0  0  0  0  0  0
  -28.9190   12.1070    5.9890 C   0  0  0  0  0  0  0  0  0  0  0  0
  -27.4510    8.8270    6.9950 C   0  0  0  0  0  0  0  0  0  0  0  0
  -26.4060    6.4310    7.6860 C   0  0  0  0  0  0  0  0  0  0  0  0
  -33.4480    7.1710    6.7740 C   0  0  0  0  0  0  0  0  0  0  0  0
  -24.9630    9.3050    6.1680 C   0  0  0  0  0  0  0  0  0  0  0  0
  -27.7150    6.7180    7.9620 C   0  0  0  0  0  0  0  0  0  0  0  0
  -28.9100   10.7980    6.5240 C   0  0  0  0  0  0  0  0  0  0  0  0
  -34.2120    4.9580    6.5140 N   0  0  0  0  0  0  0  0  0  0  0  0
  -30.0530   10.2980    7.2000 C   0  0  0  0  0  0  0  0  0  0  0  0
  -28.2370    7.9380    7.6800 C   0  0  0  0  0  0  0  0  0  0  0  0
  -30.7280    9.5180    6.2680 O   0  0  0  0  0  0  0  0  0  0  0  0
  1  9  4  0
  1 18  4  0
  2 21  4  0
  3 15  1  0
  4 11  1  0
  5 20  4  0
  5  2  4  0
  6 23  4  0
  7  4  1  0
  9 19  4  0
 10 26  1  0
 10 22  1  0
 10  3  1  0
 10 15  1  0
 12  8  1  0
 12  4  1  0
 14 13  3  0
 16 25  4  0
 16 20  4  0
 17 22  2  0
 18  6  4  0
 18 16  4  0
 19 25  4  0
 20 28  4  0
 21 24  4  0
 21 14  1  0
 22  8  1  0
 23  5  4  0
 26  3  1  0
 27 25  1  0
 27  7  1  0
 28 24  4  0
 29 12  1  0
 29 27  1  0
M  END
$$$$

     RDKit          3D

 27 30  0  0  0  0  0  0  0  0999 V2000
  -28.4930    4.2950    8.9040 C   0  0  0  0  0  0  0  0  0  0  0  0
  -33.7980    6.7330    7.5070 C   0  0  0  0  0  0  0  0  0  0  0  0
  -27.2530    4.9960    8.4100 C   0  0  0  0  0  0  0  0  0  0  0  0
  -26.7910    3.6650   10.2210 C   0  0  0  0  0  0  0  0  0  0  0  0
  -26.3470    4.7910    9.4480 O   0  0  0  0  0  0  0  0  0  0  0  0
  -27.6870    6.7390    8.0080 C   0  0  0  0  0  0  0  0  0  0  0  0
  -26.1050    8.4890    6.6480 C   0  0  0  0  0  0  0  0  0  0  0  0
  -29.0000   10.7980    6.5290 C   0  0  0  0  0  0  0  0  0  0  0  0
  -27.4620    8.8440    6.9900 C   0  0  0  0  0  0  0  0  0  0  0  0
  -25.5760    9.6750    5.9590 N   0  0  0  0  0  0  0  0  0  0  0  0
  -28.8990   12.1080    6.0220 C   0  0  0  0  0  0  0  0  0  0  0  0
  -32.3660    8.9680    7.4800 C   0  0  0  0  0  0  0  0  0  0  0  0
  -30.9470    9.1660    6.7480 C   0  0  0  0  0  0  0  0  0  0  0  0
  -27.7220   10.1010    6.5000 C   0  0  0  0  0  0  0  0  0  0  0  0
  -33.4490   10.9390    8.1760 O   0  0  0  0  0  0  0  0  0  0  0  0
  -28.1140    3.3930    9.9250 O   0  0  0  0  0  0  0  0  0  0  0  0
  -33.6830    8.2160    7.5860 N   0  0  0  0  0  0  0  0  0  0  0  0
  -33.3100    6.5600    6.0170 C   0  0  0  0  0  0  0  0  0  0  0  0
  -26.6260   11.8590    5.3570 C   0  0  0  0  0  0  0  0  0  0  0  0
  -30.2000   10.2440    7.0200 O   0  0  0  0  0  0  0  0  0  0  0  0
  -35.1930    6.3000    7.9870 C   0  0  0  0  0  0  0  0  0  0  0  0
  -26.3920    6.4600    7.7340 C   0  0  0  0  0  0  0  0  0  0  0  0
  -32.2850   10.2420    8.3760 C   0  0  0  0  0  0  0  0  0  0  0  0
  -28.3210    7.9760    7.6520 C   0  0  0  0  0  0  0  0  0  0  0  0
  -26.5410   10.5720    5.8850 C   0  0  0  0  0  0  0  0  0  0  0  0
  -25.5470    7.4070    7.0400 C   0  0  0  0  0  0  0  0  0  0  0  0
  -27.7660   12.6210    5.3560 C   0  0  0  0  0  0  0  0  0  0  0  0
  1 16  1  0
  2 17  1  0
  2 21  1  0
  3 22  1  0
  3  1  1  0
  3  5  1  0
  5  4  1  0
  7  9  4  0
  7 26  4  0
  8 20  1  0
  9 24  4  0
 10  7  2  0
 11  8  2  0
 12 17  1  0
 12 23  1  0
 13 20  1  0
 13 12  2  3
 14  8  1  0
 14  9  2  0
 15 23  1  0
 16  4  1  0
 18  2  1  0
 22  6  4  0
 24  6  4  0
 25 19  1  0
 25 10  1  0
 25 14  1  0
 26 22  4  0
 27 19  2  0
 27 11  1  0
M  END
$$$$

     RDKit          3D

 37 43  0  0  0  0  0  0  0  0999 V2000
  -26.9300    4.6600    9.0020 N   0  0  0  0  0  0  0  0  0  0  0  0
  -25.5690    9.6710    6.0080 N   0  0  0  0  0  0  0  0  0  0  0  0
  -31.0740   11.2820    7.6300 C   0  0  0  0  0  0  0  0  0  0  0  0
  -33.1420    7.3360    6.7840 C   0  0  0  0  0  0  0  0  0  0  0  0
  -30.1770   10.4120    6.8690 C   0  0  0  0  0  0  0  0  0  0  0  0
  -25.5860    7.3880    7.0170 C   0  0  0  0  0  0  0  0  0  0  0  0
  -32.1160    9.5820    6.7580 C   0  0  0  0  0  0  0  0  0  0  0  0
  -27.7530   12.6140    5.3940 C   0  0  0  0  0  0  0  0  0  0  0  0
  -28.8600   12.1490    5.9890 C   0  0  0  0  0  0  0  0  0  0  0  0
  -33.8560    6.5360    7.4780 C   0  0  0  0  0  0  0  0  0  0  0  0
  -29.2600    4.8060    9.0890 O   0  0  0  0  0  0  0  0  0  0  0  0
  -35.4500    4.8890    7.9590 C   0  0  0  0  0  0  0  0  0  0  0  0
  -27.7960   10.0820    6.5270 C   0  0  0  0  0  0  0  0  0  0  0  0
  -28.2240    2.9990   10.3510 C   0  0  0  0  0  0  0  0  0  0  0  0
  -27.8390    1.6400   10.3810 O   0  0  0  0  0  0  0  0  0  0  0  0
  -28.0600    5.4410    8.6710 C   0  0  0  0  0  0  0  0  0  0  0  0
  -29.1000    3.3600    9.1210 C   0  0  0  0  0  0  0  0  0  0  0  0
  -28.9290   10.8410    6.5210 C   0  0  0  0  0  0  0  0  0  0  0  0
  -30.7450    9.3430    6.5000 O   0  0  0  0  0  0  0  0  0  0  0  0
  -33.1360    4.3090    8.6680 C   0  0  0  0  0  0  0  0  0  0  0  0
  -26.3900    6.4520    7.6810 C   0  0  0  0  0  0  0  0  0  0  0  0
  -35.2220    6.3910    7.9600 C   0  0  0  0  0  0  0  0  0  0  0  0
  -24.7490    4.8630    8.6120 O   0  0  0  0  0  0  0  0  0  0  0  0
  -32.8470    5.7470    8.4830 C   0  0  0  0  0  0  0  0  0  0  0  0
  -28.3180    7.9320    7.6230 C   0  0  0  0  0  0  0  0  0  0  0  0
  -27.6860    6.7760    8.0470 C   0  0  0  0  0  0  0  0  0  0  0  0
  -25.8530    5.2540    8.3750 C   0  0  0  0  0  0  0  0  0  0  0  0
  -26.6430   10.6050    5.9270 C   0  0  0  0  0  0  0  0  0  0  0  0
  -33.4860   10.9650    8.1500 O   0  0  0  0  0  0  0  0  0  0  0  0
  -26.9250    3.8460   10.2360 C   0  0  0  0  0  0  0  0  0  0  0  0
  -26.1400    8.5860    6.6560 C   0  0  0  0  0  0  0  0  0  0  0  0
  -32.4530    7.1500    5.7660 O   0  0  0  0  0  0  0  0  0  0  0  0
  -26.6060   11.8520    5.3200 C   0  0  0  0  0  0  0  0  0  0  0  0
  -34.5700    4.2420    8.9660 O   0  0  0  0  0  0  0  0  0  0  0  0
  -33.7430    8.1780    7.6300 N   0  0  0  0  0  0  0  0  0  0  0  0
  -27.4640    8.8740    6.9950 C   0  0  0  0  0  0  0  0  0  0  0  0
  -32.2630   10.3810    7.9130 C   0  0  0  0  0  0  0  0  0  0  0  0
  1 30  1  0
  2 31  1  0
  3 37  1  0
  4 10  1  0
  4 35  1  0
  5 18  1  0
  5  3  1  0
  6 21  2  0
  7 37  1  0
  8  9  4  0
  9 18  4  0
 10 35  1  0
 10 22  1  0
 10 24  1  0
 11 17  1  0
 12 22  1  0
 12 34  1  0
 13 36  2  0
 14 15  1  0
 16 26  1  0
 16  1  1  0
 16 11  1  0
 17 14  1  0
 18 13  4  0
 19  7  1  0
 19  5  1  0
 20 34  1  0
 21 26  1  0
 21 27  1  0
 24 20  1  0
 25 26  2  0
 27 23  2  0
 27  1  1  0
 28  2  2  0
 28 13  4  0
 30 14  1  0
 31 36  1  0
 31  6  1  0
 32  4  2  0
 33  8  4  0
 33 28  4  0
 36 25  1  0
 37 29  1  0
M  END
$$$$

     RDKit          3D

 27 31  0  0  0  0  0  0  0  0999 V2000
  -31.2020   11.1030    7.5140 O   0  0  0  0  0  0  0  0  0  0  0  0
  -25.5710    9.6390    5.9710 N   0  0  0  0  0  0  0  0  0  0  0  0
  -30.0650   10.2970    7.2020 C   0  0  0  0  0  0  0  0  0  0  0  0
  -31.9310    6.1200    8.3740 O   0  0  0  0  0  0  0  0  0  0  0  0
  -27.6630    6.7960    7.9830 C   0  0  0  0  0  0  0  0  0  0  0  0
  -26.6680   11.8940    5.3340 C   0  0  0  0  0  0  0  0  0  0  0  0
  -32.5300    9.1450    7.2570 C   0  0  0  0  0  0  0  0  0  0  0  0
  -27.4280    8.8440    7.0000 C   0  0  0  0  0  0  0  0  0  0  0  0
  -27.8000   12.6680    5.4270 C   0  0  0  0  0  0  0  0  0  0  0  0
  -35.0030    4.8790    8.5160 C   0  0  0  0  0  0  0  0  0  0  0  0
  -33.4990   10.9550    8.1580 O   0  0  0  0  0  0  0  0  0  0  0  0
  -28.9140   12.1400    5.9800 C   0  0  0  0  0  0  0  0  0  0  0  0
  -28.2700    7.9590    7.6460 C   0  0  0  0  0  0  0  0  0  0  0  0
  -26.1350    8.5890    6.6870 C   0  0  0  0  0  0  0  0  0  0  0  0
  -28.8430   10.8280    6.5500 C   0  0  0  0  0  0  0  0  0  0  0  0
  -31.4950    8.5330    6.7180 C   0  0  0  0  0  0  0  0  0  0  0  0
  -26.3830    6.4360    7.6620 C   0  0  0  0  0  0  0  0  0  0  0  0
  -26.6020   10.6630    5.8460 C   0  0  0  0  0  0  0  0  0  0  0  0
  -35.2180    6.3620    7.9550 C   0  0  0  0  0  0  0  0  0  0  0  0
  -25.6210    7.3620    6.9900 C   0  0  0  0  0  0  0  0  0  0  0  0
  -33.6400    4.6120    8.2180 N   0  0  0  0  0  0  0  0  0  0  0  0
  -27.6780   10.0970    6.5020 C   0  0  0  0  0  0  0  0  0  0  0  0
  -33.7350    8.2500    7.6020 N   0  0  0  0  0  0  0  0  0  0  0  0
  -33.8830    6.8370    7.3110 C   0  0  0  0  0  0  0  0  0  0  0  0
  -30.5230    9.3250    6.6150 N   0  0  0  0  0  0  0  0  0  0  0  0
  -32.1940   10.3190    8.1280 C   0  0  0  0  0  0  0  0  0  0  0  0
  -33.0570    5.8150    7.8790 C   0  0  0  0  0  0  0  0  0  0  0  0
  1 26  1  0
  2 14  1  0
  3 15  1  0
  3  1  1  0
  6  9  4  0
  6 18  4  0
  7 23  1  0
  7 26  1  0
  8 13  1  0
  9 12  4  0
 12 15  4  0
 13  5  2  0
 14 20  1  0
 14  8  1  0
 16  7  1  0
 17  5  1  0
 18  2  2  0
 18 22  4  0
 19 10  1  0
 20 17  2  0
 21 10  1  0
 22 15  4  0
 22  8  2  0
 24 23  1  0
 24 27  1  0
 24 19  1  0
 25 16  1  0
 25  3  1  0
 26 11  1  0
 27 21  1  0
 27  4  2  0
M  END
$$$$

     RDKit          3D

 24 27  0  0  0  0  0  0  0  0999 V2000
  -25.5820    7.3070    7.0360 C   0  0  0  0  0  0  0  0  0  0  0  0
  -28.2450    7.9400    7.5930 C   0  0  0  0  0  0  0  0  0  0  0  0
  -32.2950   10.1340    8.0420 C   0  0  0  0  0  0  0  0  0  0  0  0
  -27.6950    6.7600    7.9960 C   0  0  0  0  0  0  0  0  0  0  0  0
  -27.8350   12.5930    5.3330 C   0  0  0  0  0  0  0  0  0  0  0  0
  -31.3670    8.1490    6.8080 C   0  0  0  0  0  0  0  0  0  0  0  0
  -27.4730    8.7840    6.9310 C   0  0  0  0  0  0  0  0  0  0  0  0
  -26.6480   10.6440    5.8760 C   0  0  0  0  0  0  0  0  0  0  0  0
  -33.8740    6.7630    7.3630 C   0  0  0  0  0  0  0  0  0  0  0  0
  -26.5880   11.8330    5.3160 C   0  0  0  0  0  0  0  0  0  0  0  0
  -28.8830   12.1480    5.9790 C   0  0  0  0  0  0  0  0  0  0  0  0
  -28.9250   10.8060    6.5560 C   0  0  0  0  0  0  0  0  0  0  0  0
  -26.1600    8.5450    6.6620 C   0  0  0  0  0  0  0  0  0  0  0  0
  -35.1870    6.2610    7.9350 C   0  0  0  0  0  0  0  0  0  0  0  0
  -33.7630    6.2350    5.9800 C   0  0  0  0  0  0  0  0  0  0  0  0
  -30.0190   10.1460    7.2340 O   0  0  0  0  0  0  0  0  0  0  0  0
  -27.7530   10.1030    6.5140 C   0  0  0  0  0  0  0  0  0  0  0  0
  -33.5100   10.9530    8.1620 O   0  0  0  0  0  0  0  0  0  0  0  0
  -29.9180    8.5360    7.5000 C   0  0  0  0  0  0  0  0  0  0  0  0
  -32.5700    8.9770    7.0980 C   0  0  0  0  0  0  0  0  0  0  0  0
  -26.4350    6.4200    7.7060 C   0  0  0  0  0  0  0  0  0  0  0  0
  -31.2440   10.9260    7.3430 C   0  0  0  0  0  0  0  0  0  0  0  0
  -33.7150    8.2050    7.6310 N   0  0  0  0  0  0  0  0  0  0  0  0
  -25.6700    9.7270    5.9800 N   0  0  0  0  0  0  0  0  0  0  0  0
  1 21  1  0
  2  4  2  0
  3 18  1  0
  5 11  4  0
  6 20  1  0
  6 19  2  0
  7  2  1  0
  8 24  2  0
  8 17  4  0
  9 23  1  0
  9 14  1  0
 10  5  4  0
 10  8  4  0
 11 12  4  0
 12 16  1  0
 13  7  1  0
 13  1  2  0
 15  9  1  0
 16 22  1  0
 17 12  4  0
 17  7  2  0
 19  2  1  0
 20 23  1  0
 20  3  1  0
 21  4  1  0
 22  3  1  0
 24 13  1  0
M  END
$$$$

     RDKit          3D

 21 23  0  0  0  0  0  0  0  0999 V2000
  -26.1450    8.6050    6.6230 C   0  0  0  0  0  0  0  0  0  0  0  0
  -28.2730    7.9040    7.6820 C   0  0  0  0  0  0  0  0  0  0  0  0
  -28.9520   10.8650    6.5730 C   0  0  0  0  0  0  0  0  0  0  0  0
  -27.7000    6.7340    8.0220 C   0  0  0  0  0  0  0  0  0  0  0  0
  -33.7150    8.2230    7.6250 N   0  0  0  0  0  0  0  0  0  0  0  0
  -26.6080   11.8710    5.3810 C   0  0  0  0  0  0  0  0  0  0  0  0
  -25.6100    9.6820    5.9900 N   0  0  0  0  0  0  0  0  0  0  0  0
  -33.4540   10.9470    8.1770 O   0  0  0  0  0  0  0  0  0  0  0  0
  -27.7410   12.6600    5.4140 C   0  0  0  0  0  0  0  0  0  0  0  0
  -27.7810   10.0960    6.4500 C   0  0  0  0  0  0  0  0  0  0  0  0
  -28.9110   12.1310    6.0260 C   0  0  0  0  0  0  0  0  0  0  0  0
  -30.0410   10.4220    7.1720 N   0  0  0  0  0  0  0  0  0  0  0  0
  -33.8860    6.8640    7.2560 C   0  0  0  0  0  0  0  0  0  0  0  0
  -32.2220   10.2210    8.0440 C   0  0  0  0  0  0  0  0  0  0  0  0
  -35.1220    6.3320    7.9740 C   0  0  0  0  0  0  0  0  0  0  0  0
  -25.5680    7.3540    6.9930 C   0  0  0  0  0  0  0  0  0  0  0  0
  -26.3890    6.4420    7.6560 C   0  0  0  0  0  0  0  0  0  0  0  0
  -31.3680   11.0820    7.1550 C   0  0  0  0  0  0  0  0  0  0  0  0
  -26.5560   10.6040    5.9090 C   0  0  0  0  0  0  0  0  0  0  0  0
  -32.4960    8.8520    7.2650 C   0  0  0  0  0  0  0  0  0  0  0  0
  -27.4820    8.8720    6.9530 C   0  0  0  0  0  0  0  0  0  0  0  0
  1 21  4  0
  1 16  4  0
  2  4  4  0
  3 12  1  0
  6  9  1  0
  6 19  1  0
  7  1  1  0
  9 11  2  0
 10  3  2  0
 10 21  1  0
 11  3  1  0
 13  5  1  0
 13 15  1  0
 14  8  1  0
 16 17  4  0
 17  4  4  0
 18 12  1  0
 18 14  1  0
 19  7  2  0
 19 10  1  0
 20  5  1  0
 20 14  1  0
 21  2  4  0
M  END
$$$$

     RDKit          3D

 29 33  0  0  0  0  0  0  0  0999 V2000
  -26.5730   10.6250    5.9010 C   0  0  0  0  0  0  0  0  0  0  0  0
  -27.7150    6.7270    8.0030 C   0  0  0  0  0  0  0  0  0  0  0  0
  -26.1230    8.5470    6.6880 C   0  0  0  0  0  0  0  0  0  0  0  0
  -27.1690    4.5660    8.7600 C   0  0  0  0  0  0  0  0  0  0  0  0
  -31.6320    8.3520    6.2780 C   0  0  0  0  0  0  0  0  0  0  0  0
  -33.7920    6.8040    7.3710 C   0  0  0  0  0  0  0  0  0  0  0  0
  -32.3170   10.2150    8.0510 C   0  0  0  0  0  0  0  0  0  0  0  0
  -30.6650    5.4170    8.8910 C   0  0  0  0  0  0  0  0  0  0  0  0
  -28.9240   12.1630    5.9830 C   0  0  0  0  0  0  0  0  0  0  0  0
  -33.7540    6.4250    5.9170 C   0  0  0  0  0  0  0  0  0  0  0  0
  -35.1890    6.3320    8.0250 C   0  0  0  0  0  0  0  0  0  0  0  0
  -28.2810    7.9660    7.7060 C   0  0  0  0  0  0  0  0  0  0  0  0
  -30.1530   10.1410    6.9700 C   0  0  0  0  0  0  0  0  0  0  0  0
  -26.0670    5.1490    8.2300 N   0  0  0  0  0  0  0  0  0  0  0  0
  -31.2920   11.0260    7.1780 C   0  0  0  0  0  0  0  0  0  0  0  0
  -25.5510    9.6590    6.0240 O   0  0  0  0  0  0  0  0  0  0  0  0
  -33.4960   10.9480    8.2120 O   0  0  0  0  0  0  0  0  0  0  0  0
  -30.3880    8.9710    6.2030 O   0  0  0  0  0  0  0  0  0  0  0  0
  -33.7390    8.2430    7.5930 N   0  0  0  0  0  0  0  0  0  0  0  0
  -26.3790    6.3270    7.6820 C   0  0  0  0  0  0  0  0  0  0  0  0
  -27.4900    8.8200    6.9880 C   0  0  0  0  0  0  0  0  0  0  0  0
  -27.7460   10.0850    6.5310 C   0  0  0  0  0  0  0  0  0  0  0  0
  -27.7580   12.6510    5.3610 C   0  0  0  0  0  0  0  0  0  0  0  0
  -25.6140    7.3050    7.0390 C   0  0  0  0  0  0  0  0  0  0  0  0
  -28.8970   10.8140    6.5020 C   0  0  0  0  0  0  0  0  0  0  0  0
  -26.5870   11.9550    5.3840 C   0  0  0  0  0  0  0  0  0  0  0  0
  -32.5440    8.9720    7.3260 C   0  0  0  0  0  0  0  0  0  0  0  0
  -29.4960    5.1120    8.7860 O   0  0  0  0  0  0  0  0  0  0  0  0
  -28.2160    5.4770    8.5890 C   0  0  0  0  0  0  0  0  0  0  0  0
  1 16  4  0
  1 22  4  0
  2 29  1  0
  3 21  4  0
  3 24  1  0
  5 27  1  0
  6 19  1  0
  6 11  1  0
  7 17  1  0
  9 25  4  0
 10  6  1  0
 12  2  2  0
 13 25  1  0
 13 15  1  0
 14  4  1  0
 15  7  1  0
 16  3  4  0
 18  5  1  0
 18 13  1  0
 20  2  1  0
 20 14  2  0
 21 12  1  0
 22 21  4  0
 23 26  4  0
 23  9  4  0
 24 20  1  0
 25 22  4  0
 26  1  4  0
 27 19  1  0
 27  7  1  0
 28  8  1  0
 29  4  2  0
 29 28  1  0
M  END
$$$$

     RDKit          3D

 27 31  0  0  0  0  0  0  0  0999 V2000
  -28.2810    7.9350    7.6380 C   0  0  0  0  0  0  0  0  0  0  0  0
  -26.4080    6.4180    7.6990 C   0  0  0  0  0  0  0  0  0  0  0  0
  -32.1440    8.7290    6.0560 O   0  0  0  0  0  0  0  0  0  0  0  0
  -33.0970    4.8720    9.1130 C   0  0  0  0  0  0  0  0  0  0  0  0
  -26.5870   10.6070    5.8460 C   0  0  0  0  0  0  0  0  0  0  0  0
  -35.3320    4.8310    7.9490 C   0  0  0  0  0  0  0  0  0  0  0  0
  -34.2880    4.1110    8.7410 C   0  0  0  0  0  0  0  0  0  0  0  0
  -35.1750    6.3450    7.9710 C   0  0  0  0  0  0  0  0  0  0  0  0
  -26.1110    8.5530    6.5970 C   0  0  0  0  0  0  0  0  0  0  0  0
  -27.7840   12.6460    5.3910 C   0  0  0  0  0  0  0  0  0  0  0  0
  -31.1880   10.8520    7.4080 C   0  0  0  0  0  0  0  0  0  0  0  0
  -32.3500   10.0880    8.0140 C   0  0  0  0  0  0  0  0  0  0  0  0
  -32.6380    6.0490    8.2150 C   0  0  0  0  0  0  0  0  0  0  0  0
  -27.4260    8.8420    6.9140 C   0  0  0  0  0  0  0  0  0  0  0  0
  -29.9090   10.0930    7.2270 N   0  0  0  0  0  0  0  0  0  0  0  0
  -27.6880   10.1080    6.4720 C   0  0  0  0  0  0  0  0  0  0  0  0
  -25.5980    9.6560    5.9230 N   0  0  0  0  0  0  0  0  0  0  0  0
  -29.6270    8.6320    7.8690 C   0  0  0  0  0  0  0  0  0  0  0  0
  -32.6740    8.9780    7.1000 C   0  0  0  0  0  0  0  0  0  0  0  0
  -28.8990   12.1080    6.0410 C   0  0  0  0  0  0  0  0  0  0  0  0
  -28.8360   10.8070    6.6000 C   0  0  0  0  0  0  0  0  0  0  0  0
  -33.7550    8.1880    7.6070 N   0  0  0  0  0  0  0  0  0  0  0  0
  -25.5470    7.3370    6.9850 C   0  0  0  0  0  0  0  0  0  0  0  0
  -26.6320   11.8910    5.3420 C   0  0  0  0  0  0  0  0  0  0  0  0
  -33.7600    6.7510    7.5170 C   0  0  0  0  0  0  0  0  0  0  0  0
  -27.7180    6.7300    8.0030 C   0  0  0  0  0  0  0  0  0  0  0  0
  -33.5060   10.9120    8.2000 O   0  0  0  0  0  0  0  0  0  0  0  0
  1 18  4  0
  1 26  4  0
  2 26  4  0
  3 19  2  0
  5 17  4  0
  5 16  4  0
  6  8  1  0
  6  7  1  0
  7  4  1  0
  9 14  4  0
  9 23  4  0
 10 20  4  0
 11 12  1  0
 12 27  1  0
 13  4  1  0
 14  1  4  0
 15 11  1  0
 15 18  4  0
 16 21  4  0
 16 14  2  0
 17  9  4  0
 19 22  1  0
 19 12  1  0
 20 21  4  0
 21 15  4  0
 23  2  4  0
 24 10  4  0
 24  5  4  0
 25 22  1  0
 25  8  1  0
 25 13  1  0
M  END
$$$$

     RDKit          3D

 37 41  0  0  0  0  0  0  0  0999 V2000
  -28.2650    7.9700    7.6780 C   0  0  0  0  0  0  0  0  0  0  0  0
  -26.6050   10.6190    5.9660 C   0  0  0  0  0  0  0  0  0  0  0  0
  -28.8770   11.1020    6.6660 C   0  0  0  0  0  0  0  0  0  0  0  0
  -34.7110    3.5900   10.4920 F   0  0  0  0  0  0  0  0  0  0  0  0
  -33.5010   10.9180    8.1680 O   0  0  0  0  0  0  0  0  0  0  0  0
  -27.6470   12.6330    5.3670 C   0  0  0  0  0  0  0  0  0  0  0  0
  -36.7560    4.4290    8.8780 O   0  0  0  0  0  0  0  0  0  0  0  0
  -26.4030    6.4780    7.7160 C   0  0  0  0  0  0  0  0  0  0  0  0
  -24.1150    7.1440    7.0820 C   0  0  0  0  0  0  0  0  0  0  0  0
  -28.9100    9.8920    6.8250 C   0  0  0  0  0  0  0  0  0  0  0  0
  -35.2140    6.3230    7.9640 C   0  0  0  0  0  0  0  0  0  0  0  0
  -25.9410   13.8580    4.9310 O   0  0  0  0  0  0  0  0  0  0  0  0
  -27.3920   13.8610    4.8240 C   0  0  0  0  0  0  0  0  0  0  0  0
  -28.8660   12.1440    5.9360 C   0  0  0  0  0  0  0  0  0  0  0  0
  -26.5420   11.8100    5.3790 C   0  0  0  0  0  0  0  0  0  0  0  0
  -32.2900   10.2340    8.0870 C   0  0  0  0  0  0  0  0  0  0  0  0
  -33.7600    8.2460    7.5720 N   0  0  0  0  0  0  0  0  0  0  0  0
  -25.4480   12.5360    5.1900 C   0  0  0  0  0  0  0  0  0  0  0  0
  -31.4860    8.1940    6.6840 C   0  0  0  0  0  0  0  0  0  0  0  0
  -33.9460    5.8870    7.1940 C   0  0  0  0  0  0  0  0  0  0  0  0
  -31.0460   11.1110    7.8000 C   0  0  0  0  0  0  0  0  0  0  0  0
  -32.5920    8.9810    7.1700 C   0  0  0  0  0  0  0  0  0  0  0  0
  -32.8650    5.6090    8.2760 C   0  0  0  0  0  0  0  0  0  0  0  0
  -33.1760    4.5240    9.1930 N   0  0  0  0  0  0  0  0  0  0  0  0
  -23.3280    7.8940    6.4410 O   0  0  0  0  0  0  0  0  0  0  0  0
  -27.3820    8.8680    7.0770 C   0  0  0  0  0  0  0  0  0  0  0  0
  -35.5370    4.9440    8.7070 C   0  0  0  0  0  0  0  0  0  0  0  0
  -29.9870    8.0960    7.4300 C   0  0  0  0  0  0  0  0  0  0  0  0
  -27.6760    6.7030    7.9860 C   0  0  0  0  0  0  0  0  0  0  0  0
  -25.5480    7.3860    7.0300 C   0  0  0  0  0  0  0  0  0  0  0  0
  -30.0940   10.0260    7.4810 O   0  0  0  0  0  0  0  0  0  0  0  0
  -34.4560    4.3300    9.4420 C   0  0  0  0  0  0  0  0  0  0  0  0
  -26.0180    8.6680    6.6950 C   0  0  0  0  0  0  0  0  0  0  0  0
  -33.5440    7.2130    6.5510 C   0  0  0  0  0  0  0  0  0  0  0  0
  -25.5330    9.8020    6.0110 N   0  0  0  0  0  0  0  0  0  0  0  0
  -23.6830    6.2770    7.8930 O   0  0  0  0  0  0  0  0  0  0  0  0
  -31.2870   12.0000    6.7610 O   0  0  0  0  0  0  0  0  0  0  0  0
  1 29  1  0
  2 35  1  0
  6 15  1  0
  6 14  2  0
  8 29  2  0
  9 36  1  0
 10  3  1  0
 10 26  1  0
 10 31  1  0
 11 27  1  0
 12 18  1  0
 13 12  1  0
 13  6  1  0
 14  3  1  0
 15 18  1  0
 15  2  1  0
 16  5  1  0
 19 22  1  0
 19 28  2  0
 20 34  1  0
 20 11  1  0
 20 23  1  0
 21 37  1  0
 21 16  1  0
 22 17  1  0
 22 16  1  0
 23 24  1  0
 24 32  2  0
 25  9  2  0
 26  1  1  0
 27  7  1  0
 27 32  1  0
 28  1  2  0
 30  9  1  0
 30  8  1  0
 31 21  1  0
 32  4  1  0
 33 35  1  0
 33 30  1  0
 33 26  1  0
 34 17  1  0
M  END
$$$$

     RDKit          3D

 27 30  0  0  0  0  0  0  0  0999 V2000
  -26.4160    6.4670    7.6790 C   0  0  0  0  0  0  0  0  0  0  0  0
  -26.5970   11.8450    5.3220 C   0  0  0  0  0  0  0  0  0  0  0  0
  -28.9310   10.8790    6.5330 C   0  0  0  0  0  0  0  0  0  0  0  0
  -33.7120    6.5680    5.8880 C   0  0  0  0  0  0  0  0  0  0  0  0
  -27.4930    8.8760    6.9650 C   0  0  0  0  0  0  0  0  0  0  0  0
  -25.6480    5.2840    7.9120 C   0  0  0  0  0  0  0  0  0  0  0  0
  -31.3400    7.8630    7.9000 O   0  0  0  0  0  0  0  0  0  0  0  0
  -24.8810    4.7390    7.8710 O   0  0  0  0  0  0  0  0  0  0  0  0
  -32.3740    8.8620    7.4780 C   0  0  0  0  0  0  0  0  0  0  0  0
  -26.5890   10.5890    5.8610 C   0  0  0  0  0  0  0  0  0  0  0  0
  -33.4960   10.9210    8.1400 O   0  0  0  0  0  0  0  0  0  0  0  0
  -26.0700    8.5810    6.6820 C   0  0  0  0  0  0  0  0  0  0  0  0
  -31.2450   11.1870    7.3080 C   0  0  0  0  0  0  0  0  0  0  0  0
  -30.0440   10.4210    7.1810 O   0  0  0  0  0  0  0  0  0  0  0  0
  -27.7020    6.7450    7.9860 C   0  0  0  0  0  0  0  0  0  0  0  0
  -35.1110    6.2290    7.9570 C   0  0  0  0  0  0  0  0  0  0  0  0
  -27.7670   10.1290    6.4930 C   0  0  0  0  0  0  0  0  0  0  0  0
  -25.6220    9.6460    5.9250 N   0  0  0  0  0  0  0  0  0  0  0  0
  -33.7120    8.1990    7.6010 N   0  0  0  0  0  0  0  0  0  0  0  0
  -34.6110    5.1130    8.9240 C   0  0  0  0  0  0  0  0  0  0  0  0
  -25.5860    7.3810    7.0030 C   0  0  0  0  0  0  0  0  0  0  0  0
  -29.8630    8.1010    7.8800 C   0  0  0  0  0  0  0  0  0  0  0  0
  -32.2690   10.2390    8.1350 C   0  0  0  0  0  0  0  0  0  0  0  0
  -33.8140    6.8010    7.3610 C   0  0  0  0  0  0  0  0  0  0  0  0
  -28.2500    7.9360    7.6620 C   0  0  0  0  0  0  0  0  0  0  0  0
  -27.8010   12.6610    5.4310 C   0  0  0  0  0  0  0  0  0  0  0  0
  -28.9150   12.1770    6.0000 C   0  0  0  0  0  0  0  0  0  0  0  0
  1  6  2  0
  1 15  4  0
  2 26  4  0
  2 10  4  0
  3 14  1  0
  5 25  4  0
  8  6  2  0
  9 19  1  0
  9  7  1  0
  9 23  1  0
 10 18  2  0
 10 17  4  0
 12  5  4  0
 12 21  4  0
 13 23  1  0
 14 13  1  0
 16 20  1  0
 17  3  4  0
 17  5  2  0
 18 12  1  0
 21  1  4  0
 22  7  1  0
 23 11  1  0
 24  4  1  0
 24 19  1  0
 24 16  1  0
 25 22  1  0
 25 15  4  0
 26 27  4  0
 27  3  4  0
M  END
$$$$

     RDKit          3D

 24 26  0  0  0  0  0  0  0  0999 V2000
  -28.2830    7.9280    7.6430 C   0  0  0  0  0  0  0  0  0  0  0  0
  -32.4760    8.8620    7.2770 C   0  0  0  0  0  0  0  0  0  0  0  0
  -28.9130   12.1550    6.0010 C   0  0  0  0  0  0  0  0  0  0  0  0
  -25.5730    9.6130    6.0450 N   0  0  0  0  0  0  0  0  0  0  0  0
  -26.2140    8.5150    6.6900 C   0  0  0  0  0  0  0  0  0  0  0  0
  -35.1670    6.2840    7.9600 C   0  0  0  0  0  0  0  0  0  0  0  0
  -24.2330    9.3620    5.9150 C   0  0  0  0  0  0  0  0  0  0  0  0
  -27.7850   10.1070    6.5360 C   0  0  0  0  0  0  0  0  0  0  0  0
  -26.5800   11.8660    5.3440 C   0  0  0  0  0  0  0  0  0  0  0  0
  -27.7060    6.7600    8.0610 C   0  0  0  0  0  0  0  0  0  0  0  0
  -27.7810   12.6620    5.4030 C   0  0  0  0  0  0  0  0  0  0  0  0
  -33.7390    8.2320    7.5910 N   0  0  0  0  0  0  0  0  0  0  0  0
  -28.9210   10.8680    6.5330 C   0  0  0  0  0  0  0  0  0  0  0  0
  -33.3640    6.4500    6.4250 O   0  0  0  0  0  0  0  0  0  0  0  0
  -34.0850    5.3490    5.8890 C   0  0  0  0  0  0  0  0  0  0  0  0
  -34.0010    6.9740    7.2930 C   0  0  0  0  0  0  0  0  0  0  0  0
  -25.5420    7.3590    7.0140 C   0  0  0  0  0  0  0  0  0  0  0  0
  -31.2760   10.9790    7.0280 C   0  0  0  0  0  0  0  0  0  0  0  0
  -32.2200   10.1940    7.9750 C   0  0  0  0  0  0  0  0  0  0  0  0
  -33.4910   10.9350    8.1500 O   0  0  0  0  0  0  0  0  0  0  0  0
  -26.4060    6.4170    7.7110 C   0  0  0  0  0  0  0  0  0  0  0  0
  -30.1380   10.3640    6.9350 O   0  0  0  0  0  0  0  0  0  0  0  0
  -26.6140   10.5650    5.8860 C   0  0  0  0  0  0  0  0  0  0  0  0
  -27.5100    8.8420    6.9860 C   0  0  0  0  0  0  0  0  0  0  0  0
  1 10  4  0
  2 12  2  3
  2 19  1  0
  3 13  4  0
  4  5  4  0
  5 24  4  0
  5 17  4  0
  7  4  1  0
  8 24  4  0
  9 11  4  0
  9 23  4  0
 11  3  4  0
 13  8  4  0
 13 22  1  0
 14 16  1  0
 15 14  1  0
 16 12  1  0
 16  6  1  0
 17 21  4  0
 18 19  1  0
 19 20  1  0
 21 10  4  0
 22 18  1  0
 23  4  4  0
 23  8  4  0
 24  1  4  0
M  END
$$$$
