
     RDKit          3D

 36 40  0  0  0  0  0  0  0  0999 V2000
    2.4700   45.2200   55.7000 C   0  0  0  0  0  0  0  0  0  0  0  0
    7.8630   46.7240   53.3110 C   0  0  0  0  0  0  0  0  0  0  0  0
    1.3190   45.1920   53.7680 N   0  0  0  0  0  0  0  0  0  0  0  0
    6.7720   47.0800   54.3370 C   0  0  0  0  0  0  0  0  0  0  0  0
    7.6250   42.7790   48.5070 N   0  0  0  0  0  0  0  0  0  0  0  0
    1.2440   45.1120   55.1290 C   0  0  0  0  0  0  0  0  0  0  0  0
    5.4280   46.7020   54.0840 N   0  0  0  0  0  0  0  0  0  0  0  0
    4.0580   40.6720   48.6850 C   0  0  0  0  0  0  0  0  0  0  0  0
    3.8830   40.3850   46.2340 C   0  0  0  0  0  0  0  0  0  0  0  0
    4.8440   45.7360   54.9860 C   0  0  0  0  0  0  0  0  0  0  0  0
    2.6750   45.3610   53.4350 C   0  0  0  0  0  0  0  0  0  0  0  0
    9.7140   47.6760   54.6060 N   0  0  0  0  0  0  0  0  0  0  0  0
    5.8210   41.6240   47.3670 C   0  0  0  0  0  0  0  0  0  0  0  0
    6.9870   47.6610   55.3350 O   0  0  0  0  0  0  0  0  0  0  0  0
    6.4770   44.6670   49.8550 S   0  0  0  0  0  0  0  0  0  0  0  0
    9.1060   43.9480   49.5840 N   0  0  0  0  0  0  0  0  0  0  0  0
    7.5670   46.0770   52.1720 C   0  0  0  0  0  0  0  0  0  0  0  0
    8.1990   44.7860   50.2910 C   0  0  0  0  0  0  0  0  0  0  0  0
    9.8670   45.8450   51.5350 C   0  0  0  0  0  0  0  0  0  0  0  0
    6.4630   42.1220   48.5190 C   0  0  0  0  0  0  0  0  0  0  0  0
    3.0700   45.2850   51.9630 C   0  0  0  0  0  0  0  0  0  0  0  0
    8.5110   45.6420   51.3340 N   0  0  0  0  0  0  0  0  0  0  0  0
    4.6510   41.1190   49.8030 C   0  0  0  0  0  0  0  0  0  0  0  0
   10.7620   45.2160   50.7730 N   0  0  0  0  0  0  0  0  0  0  0  0
    7.8700   43.8140   49.3170 C   0  0  0  0  0  0  0  0  0  0  0  0
    4.6210   40.9020   47.3820 C   0  0  0  0  0  0  0  0  0  0  0  0
    9.2840   47.0400   53.4800 C   0  0  0  0  0  0  0  0  0  0  0  0
   10.1760   46.5870   52.6670 N   0  0  0  0  0  0  0  0  0  0  0  0
    5.8790   41.8250   49.7950 C   0  0  0  0  0  0  0  0  0  0  0  0
    2.9570   39.1580   46.6180 C   0  0  0  0  0  0  0  0  0  0  0  0
    4.7350   46.9580   52.8670 C   0  0  0  0  0  0  0  0  0  0  0  0
    3.3800   45.4830   54.6790 C   0  0  0  0  0  0  0  0  0  0  0  0
    3.0900   43.7380   51.8150 C   0  0  0  0  0  0  0  0  0  0  0  0
    4.0770   40.4720   45.2420 O   0  0  0  0  0  0  0  0  0  0  0  0
    2.1430   46.1020   51.3940 F   0  0  0  0  0  0  0  0  0  0  0  0
    4.0530   45.4370   51.0450 F   0  0  0  0  0  0  0  0  0  0  0  0
  2 27  2  0
  2  4  1  0
  3  6  1  0
  4 14  2  0
  5 20  1  0
  6  1  1  0
  7  4  1  0
  7 10  1  0
  8 23  4  0
  9 30  1  0
  9 26  1  0
 11  3  2  0
 11 32  1  0
 13 26  4  0
 13 20  4  0
 15 18  1  0
 16 18  1  0
 17  2  1  0
 18 22  1  0
 19 28  2  0
 20 29  4  0
 21 11  1  0
 22 19  1  0
 22 17  1  0
 24 19  1  0
 25  5  1  0
 25 16  1  0
 25 15  1  0
 25 18  1  0
 26  8  4  0
 27 12  1  0
 28 27  1  0
 29 23  4  0
 31  7  1  0
 32 10  1  0
 32  1  2  0
 33 21  1  0
 34  9  2  0
 35 21  1  0
 36 21  1  0
M  END
$$$$

     RDKit          3D

 27 30  0  0  0  0  0  0  0  0999 V2000
    6.2470   45.3880   51.0900 N   0  0  0  0  0  0  0  0  0  0  0  0
    5.8580   41.8060   49.8410 C   0  0  0  0  0  0  0  0  0  0  0  0
    4.6740   41.1350   49.8040 C   0  0  0  0  0  0  0  0  0  0  0  0
    1.9850   44.4390   54.0800 C   0  0  0  0  0  0  0  0  0  0  0  0
    6.1410   46.9880   53.1280 N   0  0  0  0  0  0  0  0  0  0  0  0
    4.0930   46.2220   52.4220 N   0  0  0  0  0  0  0  0  0  0  0  0
    3.4950   44.6570   54.1490 C   0  0  0  0  0  0  0  0  0  0  0  0
    7.8590   43.7100   49.3970 C   0  0  0  0  0  0  0  0  0  0  0  0
    4.6510   40.9210   47.4170 C   0  0  0  0  0  0  0  0  0  0  0  0
    7.6020   42.7570   48.5480 N   0  0  0  0  0  0  0  0  0  0  0  0
    7.2930   46.8150   52.5720 C   0  0  0  0  0  0  0  0  0  0  0  0
    6.9700   44.4590   50.2050 C   0  0  0  0  0  0  0  0  0  0  0  0
   10.7870   45.2140   50.7140 N   0  0  0  0  0  0  0  0  0  0  0  0
    8.6770   47.7950   53.2030 S   0  0  0  0  0  0  0  0  0  0  0  0
    7.3550   45.9640   51.6070 C   0  0  0  0  0  0  0  0  0  0  0  0
    1.4400   44.7830   52.7140 C   0  0  0  0  0  0  0  0  0  0  0  0
    3.0460   46.3010   51.4830 C   0  0  0  0  0  0  0  0  0  0  0  0
    9.0770   43.9410   49.6000 N   0  0  0  0  0  0  0  0  0  0  0  0
    1.6970   46.1730   52.2330 C   0  0  0  0  0  0  0  0  0  0  0  0
    8.4900   45.5600   51.1310 C   0  0  0  0  0  0  0  0  0  0  0  0
    5.0870   46.3450   52.8500 C   0  0  0  0  0  0  0  0  0  0  0  0
    3.9710   46.0910   53.7570 C   0  0  0  0  0  0  0  0  0  0  0  0
   10.0860   47.0200   52.9630 C   0  0  0  0  0  0  0  0  0  0  0  0
    9.4250   44.8970   50.5040 C   0  0  0  0  0  0  0  0  0  0  0  0
    4.0700   40.6880   48.6290 C   0  0  0  0  0  0  0  0  0  0  0  0
    6.4300   42.1190   48.5690 C   0  0  0  0  0  0  0  0  0  0  0  0
    5.8340   41.6560   47.3900 C   0  0  0  0  0  0  0  0  0  0  0  0
  1 15  1  0
  3  2  4  0
  4  7  1  0
  6 17  1  0
  6 21  1  0
  6 22  1  0
  8 18  2  0
  8 12  1  0
  9 25  4  0
 10 26  1  0
 10  8  1  0
 11  5  2  3
 11 14  1  0
 12  1  1  0
 15 11  1  0
 16  4  1  0
 17 19  1  0
 18 24  1  0
 19 16  1  0
 20 15  2  0
 21  5  1  0
 21 22  1  0
 22  7  1  0
 23 14  1  0
 24 13  1  0
 24 20  2  0
 25  3  4  0
 26  2  4  0
 27  9  4  0
 27 26  4  0
M  END
$$$$

     RDKit          3D

 18 19  0  0  0  0  0  0  0  0999 V2000
    7.0400   44.4280   50.0730 N   0  0  0  0  0  0  0  0  0  0  0  0
    9.4010   44.9680   50.5450 C   0  0  0  0  0  0  0  0  0  0  0  0
   10.7780   45.1580   50.7620 N   0  0  0  0  0  0  0  0  0  0  0  0
    4.6750   40.9370   47.4240 C   0  0  0  0  0  0  0  0  0  0  0  0
    5.8330   41.6670   47.4160 C   0  0  0  0  0  0  0  0  0  0  0  0
    9.1230   43.9320   49.6260 N   0  0  0  0  0  0  0  0  0  0  0  0
    7.4240   47.8100   53.0180 N   0  0  0  0  0  0  0  0  0  0  0  0
    8.7520   47.5740   53.1260 C   0  0  0  0  0  0  0  0  0  0  0  0
    4.6020   41.1050   49.8180 C   0  0  0  0  0  0  0  0  0  0  0  0
    6.6640   47.1290   52.1600 C   0  0  0  0  0  0  0  0  0  0  0  0
    6.4030   42.0600   48.6040 C   0  0  0  0  0  0  0  0  0  0  0  0
    4.0580   40.6670   48.6020 C   0  0  0  0  0  0  0  0  0  0  0  0
    7.2280   46.2090   51.3530 N   0  0  0  0  0  0  0  0  0  0  0  0
    5.8050   41.7790   49.8170 C   0  0  0  0  0  0  0  0  0  0  0  0
    9.3910   46.6860   52.3090 N   0  0  0  0  0  0  0  0  0  0  0  0
    7.6220   42.7690   48.5530 N   0  0  0  0  0  0  0  0  0  0  0  0
    7.8980   43.7790   49.4620 C   0  0  0  0  0  0  0  0  0  0  0  0
    8.5540   45.9630   51.4300 C   0  0  0  0  0  0  0  0  0  0  0  0
  2  3  2  0
  2 18  1  0
  4 12  4  0
  5  4  4  0
  5 11  4  0
  6  2  1  0
  7  8  4  0
 10  7  4  0
 11 14  4  0
 12  9  4  0
 13 18  4  0
 13 10  4  0
 14  9  4  0
 15  8  4  0
 16 11  1  0
 16 17  1  0
 17  6  1  0
 17  1  2  0
 18 15  4  0
M  END
$$$$

     RDKit          3D

 23 25  0  0  0  0  0  0  0  0999 V2000
    7.3540   45.8400   52.0120 N   0  0  0  0  0  0  0  0  0  0  0  0
    6.4360   45.2420   51.0970 C   0  0  0  0  0  0  0  0  0  0  0  0
    4.6770   40.9340   47.4110 C   0  0  0  0  0  0  0  0  0  0  0  0
    4.3930   45.9560   54.0050 C   0  0  0  0  0  0  0  0  0  0  0  0
    9.0770   43.9650   49.5220 N   0  0  0  0  0  0  0  0  0  0  0  0
    5.4130   45.9010   53.0660 C   0  0  0  0  0  0  0  0  0  0  0  0
    4.0710   40.6400   48.6410 C   0  0  0  0  0  0  0  0  0  0  0  0
    7.8340   43.8250   49.4090 C   0  0  0  0  0  0  0  0  0  0  0  0
   10.0030   46.9050   52.2480 O   0  0  0  0  0  0  0  0  0  0  0  0
    8.4660   45.5740   51.4110 C   0  0  0  0  0  0  0  0  0  0  0  0
    4.6160   41.0930   49.8250 C   0  0  0  0  0  0  0  0  0  0  0  0
   10.8090   45.1850   50.7460 N   0  0  0  0  0  0  0  0  0  0  0  0
    2.7370   45.3340   52.3050 C   0  0  0  0  0  0  0  0  0  0  0  0
    5.8610   41.6050   47.3430 C   0  0  0  0  0  0  0  0  0  0  0  0
    6.4290   42.0820   48.6090 C   0  0  0  0  0  0  0  0  0  0  0  0
    6.8630   46.2190   53.1760 C   0  0  0  0  0  0  0  0  0  0  0  0
    6.7190   44.4920   49.9990 N   0  0  0  0  0  0  0  0  0  0  0  0
    5.8590   41.7580   49.7910 C   0  0  0  0  0  0  0  0  0  0  0  0
    7.6070   42.7570   48.5030 N   0  0  0  0  0  0  0  0  0  0  0  0
    9.8670   45.8820   51.4700 C   0  0  0  0  0  0  0  0  0  0  0  0
    3.8020   45.2370   51.4290 C   0  0  0  0  0  0  0  0  0  0  0  0
    3.1120   45.5650   53.6810 C   0  0  0  0  0  0  0  0  0  0  0  0
    5.1530   45.3580   51.8150 C   0  0  0  0  0  0  0  0  0  0  0  0
  1 16  4  0
  2 23  4  0
  2  1  4  0
  3  7  4  0
  6 16  4  0
  6  4  4  0
  7 11  4  0
  8  5  2  0
  8 17  1  0
 10 20  1  0
 10  1  1  0
 12 20  1  0
 13 22  4  0
 14  3  4  0
 14 15  4  0
 15 18  4  0
 17  2  1  0
 18 11  4  0
 19 15  1  0
 19  8  1  0
 20  9  2  0
 21 23  4  0
 21 13  4  0
 22  4  4  0
 23  6  4  0
M  END
$$$$

     RDKit          3D

 36 42  0  0  0  0  0  0  0  0999 V2000
    5.9550   47.6070   54.0450 C   0  0  0  0  0  0  0  0  0  0  0  0
    1.8690   44.6010   54.6020 O   0  0  0  0  0  0  0  0  0  0  0  0
   10.7370   45.1690   50.7570 N   0  0  0  0  0  0  0  0  0  0  0  0
    9.9570   46.9470   52.1390 C   0  0  0  0  0  0  0  0  0  0  0  0
    4.6950   40.8850   47.3970 C   0  0  0  0  0  0  0  0  0  0  0  0
    7.5850   42.7550   48.5170 N   0  0  0  0  0  0  0  0  0  0  0  0
    2.3760   45.3190   55.4740 C   0  0  0  0  0  0  0  0  0  0  0  0
    6.7130   47.9270   55.0410 N   0  0  0  0  0  0  0  0  0  0  0  0
    5.8860   41.6560   47.4360 C   0  0  0  0  0  0  0  0  0  0  0  0
    4.5420   40.6760   44.7570 C   0  0  0  0  0  0  0  0  0  0  0  0
    4.5400   48.0290   54.2350 C   0  0  0  0  0  0  0  0  0  0  0  0
    6.5570   47.0120   52.9470 C   0  0  0  0  0  0  0  0  0  0  0  0
    1.4060   45.1350   53.3590 C   0  0  0  0  0  0  0  0  0  0  0  0
    8.4470   45.5260   51.0440 C   0  0  0  0  0  0  0  0  0  0  0  0
    3.5880   47.0070   54.2040 N   0  0  0  0  0  0  0  0  0  0  0  0
    6.4500   42.0700   48.6000 C   0  0  0  0  0  0  0  0  0  0  0  0
    3.5400   41.6960   45.0150 C   0  0  0  0  0  0  0  0  0  0  0  0
    4.5610   45.5370   55.6680 O   0  0  0  0  0  0  0  0  0  0  0  0
    9.9870   47.2280   53.7590 C   0  0  0  0  0  0  0  0  0  0  0  0
    4.6360   41.0980   49.8190 C   0  0  0  0  0  0  0  0  0  0  0  0
    2.4760   45.5770   52.5000 C   0  0  0  0  0  0  0  0  0  0  0  0
    9.0200   43.8920   49.6200 N   0  0  0  0  0  0  0  0  0  0  0  0
    3.8690   40.6630   46.1110 C   0  0  0  0  0  0  0  0  0  0  0  0
    8.7560   46.3160   52.0520 N   0  0  0  0  0  0  0  0  0  0  0  0
    3.6100   46.0260   55.0980 C   0  0  0  0  0  0  0  0  0  0  0  0
    9.4760   44.8460   50.4840 C   0  0  0  0  0  0  0  0  0  0  0  0
    8.5920   47.3390   54.0550 C   0  0  0  0  0  0  0  0  0  0  0  0
    5.8090   41.8220   49.8080 C   0  0  0  0  0  0  0  0  0  0  0  0
    7.0270   44.9470   50.2650 S   0  0  0  0  0  0  0  0  0  0  0  0
    7.9360   43.6840   49.4070 C   0  0  0  0  0  0  0  0  0  0  0  0
    2.8820   47.0200   52.8720 C   0  0  0  0  0  0  0  0  0  0  0  0
    7.8920   46.8390   52.9710 C   0  0  0  0  0  0  0  0  0  0  0  0
    7.9850   47.7940   55.0610 N   0  0  0  0  0  0  0  0  0  0  0  0
   11.0860   46.0320   51.8730 C   0  0  0  0  0  0  0  0  0  0  0  0
    2.7470   39.8990   46.3530 O   0  0  0  0  0  0  0  0  0  0  0  0
    4.0720   40.6830   48.6280 C   0  0  0  0  0  0  0  0  0  0  0  0
  1 11  1  0
  1  8  4  0
  2  7  1  0
  3 34  1  0
  4 34  1  0
  4 19  1  0
  5  9  4  0
  5 36  4  0
  6 16  1  0
  6 30  1  0
  8 33  4  0
  9 16  4  0
 10 17  1  0
 10 23  1  0
 12 32  4  0
 12  1  4  0
 13  2  1  0
 14 29  1  0
 14 24  1  0
 15 11  1  0
 15 25  1  0
 16 28  4  0
 17 23  1  0
 19 27  1  0
 21 31  1  0
 21 13  1  0
 22 26  1  0
 23 35  1  0
 23  5  1  0
 24  4  1  0
 24 32  1  0
 25  7  1  0
 25 18  2  0
 26  3  2  0
 26 14  1  0
 27 33  4  0
 28 20  4  0
 30 22  2  0
 30 29  1  0
 31 15  1  0
 32 27  4  0
 36 20  4  0
M  END
$$$$

     RDKit          3D

 18 19  0  0  0  0  0  0  0  0999 V2000
    5.9040   47.0980   52.2430 N   0  0  0  0  0  0  0  0  0  0  0  0
    9.5640   46.8290   52.7680 C   0  0  0  0  0  0  0  0  0  0  0  0
    9.4380   44.8860   50.4480 C   0  0  0  0  0  0  0  0  0  0  0  0
    8.2920   46.5870   52.0530 C   0  0  0  0  0  0  0  0  0  0  0  0
    5.8400   41.8020   49.8040 C   0  0  0  0  0  0  0  0  0  0  0  0
    7.8280   43.7280   49.4100 C   0  0  0  0  0  0  0  0  0  0  0  0
    4.0810   40.6400   48.6830 C   0  0  0  0  0  0  0  0  0  0  0  0
    6.4470   42.0870   48.5660 C   0  0  0  0  0  0  0  0  0  0  0  0
    6.8980   44.7820   50.3740 S   0  0  0  0  0  0  0  0  0  0  0  0
    7.6030   42.7830   48.5020 N   0  0  0  0  0  0  0  0  0  0  0  0
    9.1070   43.9210   49.5690 N   0  0  0  0  0  0  0  0  0  0  0  0
    8.3030   45.5640   51.0820 C   0  0  0  0  0  0  0  0  0  0  0  0
    4.6510   41.1220   49.8090 C   0  0  0  0  0  0  0  0  0  0  0  0
    4.6460   40.9210   47.4380 C   0  0  0  0  0  0  0  0  0  0  0  0
   10.7870   45.2320   50.7440 N   0  0  0  0  0  0  0  0  0  0  0  0
    5.8690   41.6410   47.3980 C   0  0  0  0  0  0  0  0  0  0  0  0
    7.0770   46.7320   52.8380 C   0  0  0  0  0  0  0  0  0  0  0  0
    7.1440   46.4290   54.0410 O   0  0  0  0  0  0  0  0  0  0  0  0
  1 17  1  0
  3 15  1  0
  3 12  4  0
  4  2  1  0
  4 17  1  0
  5 13  4  0
  6 11  4  0
  6  9  4  0
  7 13  4  0
  8  5  4  0
  9 12  4  0
 10  8  1  0
 10  6  1  0
 11  3  4  0
 12  4  1  0
 14  7  4  0
 16 14  4  0
 16  8  4  0
 17 18  2  0
M  END
$$$$

     RDKit          3D

 28 32  0  0  0  0  0  0  0  0999 V2000
    4.0800   40.6330   48.6310 C   0  0  0  0  0  0  0  0  0  0  0  0
    4.7130   40.9580   47.3830 C   0  0  0  0  0  0  0  0  0  0  0  0
    6.3750   45.2410   51.6350 N   0  0  0  0  0  0  0  0  0  0  0  0
    3.1300   46.2540   54.3310 N   0  0  0  0  0  0  0  0  0  0  0  0
    9.0220   43.9670   49.4890 N   0  0  0  0  0  0  0  0  0  0  0  0
   10.7680   45.3830   50.7540 N   0  0  0  0  0  0  0  0  0  0  0  0
    8.6720   46.5570   52.4450 C   0  0  0  0  0  0  0  0  0  0  0  0
    9.7760   47.1810   52.7910 O   0  0  0  0  0  0  0  0  0  0  0  0
    7.6600   42.7790   48.5620 N   0  0  0  0  0  0  0  0  0  0  0  0
    2.5220   44.1110   53.5890 C   0  0  0  0  0  0  0  0  0  0  0  0
    0.9470   45.2640   55.1430 C   0  0  0  0  0  0  0  0  0  0  0  0
    6.4250   46.0710   52.6820 C   0  0  0  0  0  0  0  0  0  0  0  0
    3.6410   44.6050   52.8510 C   0  0  0  0  0  0  0  0  0  0  0  0
    6.9600   43.6080   49.1680 C   0  0  0  0  0  0  0  0  0  0  0  0
    6.3890   42.1310   48.6400 C   0  0  0  0  0  0  0  0  0  0  0  0
    5.3660   46.3400   53.4700 C   0  0  0  0  0  0  0  0  0  0  0  0
    2.1730   45.2120   54.3590 C   0  0  0  0  0  0  0  0  0  0  0  0
    5.9090   41.6100   47.4030 C   0  0  0  0  0  0  0  0  0  0  0  0
    7.1020   47.5720   54.1030 C   0  0  0  0  0  0  0  0  0  0  0  0
    5.7420   47.3460   54.2570 N   0  0  0  0  0  0  0  0  0  0  0  0
    7.4400   46.7950   53.0530 C   0  0  0  0  0  0  0  0  0  0  0  0
    5.8940   41.7040   49.7510 C   0  0  0  0  0  0  0  0  0  0  0  0
    4.1250   45.8140   53.5660 C   0  0  0  0  0  0  0  0  0  0  0  0
    4.6390   41.0570   49.7790 C   0  0  0  0  0  0  0  0  0  0  0  0
    9.7290   45.4430   50.9190 C   0  0  0  0  0  0  0  0  0  0  0  0
    8.5690   45.6620   51.3820 C   0  0  0  0  0  0  0  0  0  0  0  0
    7.4840   45.0100   50.8570 N   0  0  0  0  0  0  0  0  0  0  0  0
    7.9310   44.0310   49.7770 C   0  0  0  0  0  0  0  0  0  0  0  0
  1 24  1  0
  2 18  1  0
  2  1  2  0
  3 12  4  0
  4 17  1  0
  5 28  2  0
  6 25  3  0
  7  8  1  0
  7 21  4  0
  9 15  1  0
  9 14  1  0
 10 17  1  0
 12 21  1  0
 12 16  4  0
 13 23  1  0
 13 10  1  0
 14 28  1  0
 15 18  1  0
 15 14  1  0
 15 22  1  0
 16 20  4  0
 17 11  1  0
 19 20  4  0
 21 19  4  0
 22 24  2  0
 23 16  1  0
 23  4  1  0
 25 26  1  0
 26  7  4  0
 27 26  4  0
 27  3  4  0
 28 27  1  0
M  END
$$$$

     RDKit          3D

 23 24  0  0  0  0  0  0  0  0999 V2000
    4.6560   41.0930   49.8200 C   0  0  0  0  0  0  0  0  0  0  0  0
    4.6550   40.9650   47.3980 C   0  0  0  0  0  0  0  0  0  0  0  0
    7.8830   43.7120   49.5060 C   0  0  0  0  0  0  0  0  0  0  0  0
    7.0940   47.1820   52.9180 C   0  0  0  0  0  0  0  0  0  0  0  0
    5.9210   47.4320   53.5360 N   0  0  0  0  0  0  0  0  0  0  0  0
    7.1170   46.2000   52.0260 C   0  0  0  0  0  0  0  0  0  0  0  0
    6.4380   42.0510   48.6270 C   0  0  0  0  0  0  0  0  0  0  0  0
   10.8010   45.2290   50.7470 N   0  0  0  0  0  0  0  0  0  0  0  0
    5.8480   41.6410   47.3760 C   0  0  0  0  0  0  0  0  0  0  0  0
    3.7490   46.4340   54.1970 C   0  0  0  0  0  0  0  0  0  0  0  0
    4.0380   40.6760   48.6400 C   0  0  0  0  0  0  0  0  0  0  0  0
    9.4800   44.9790   50.5310 C   0  0  0  0  0  0  0  0  0  0  0  0
    9.1090   43.9340   49.6550 N   0  0  0  0  0  0  0  0  0  0  0  0
    4.3330   44.5050   52.1130 C   0  0  0  0  0  0  0  0  0  0  0  0
    6.7420   44.6160   50.3860 S   0  0  0  0  0  0  0  0  0  0  0  0
    7.6200   42.7740   48.5440 N   0  0  0  0  0  0  0  0  0  0  0  0
    3.1450   45.0820   54.2240 C   0  0  0  0  0  0  0  0  0  0  0  0
    5.1240   45.6680   52.4270 N   0  0  0  0  0  0  0  0  0  0  0  0
    3.0120   44.4960   52.8670 C   0  0  0  0  0  0  0  0  0  0  0  0
    5.9010   41.7710   49.8120 C   0  0  0  0  0  0  0  0  0  0  0  0
    4.9900   46.5360   53.3030 C   0  0  0  0  0  0  0  0  0  0  0  0
    8.6150   45.9550   51.4590 C   0  0  0  0  0  0  0  0  0  0  0  0
    9.4470   46.8780   52.1590 O   0  0  0  0  0  0  0  0  0  0  0  0
  2 11  4  0
  3 13  1  0
  3 15  2  0
  4  5  1  0
  6  4  1  0
  7 20  4  0
  9  2  4  0
  9  7  4  0
 10 17  1  0
 11  1  4  0
 12  8  2  0
 12 22  1  0
 13 12  1  0
 14 18  1  0
 14 19  1  0
 16  7  1  0
 16  3  1  0
 18 21  2  0
 19 17  1  0
 20  1  4  0
 21  5  1  0
 21 10  1  0
 22  6  1  0
 22 23  1  0
M  END
$$$$

     RDKit          3D

 27 30  0  0  0  0  0  0  0  0999 V2000
    9.1190   43.9160   49.6270 N   0  0  0  0  0  0  0  0  0  0  0  0
    4.6770   40.9130   47.4210 C   0  0  0  0  0  0  0  0  0  0  0  0
    7.5990   42.7340   48.4980 N   0  0  0  0  0  0  0  0  0  0  0  0
    7.6910   48.0310   53.6080 C   0  0  0  0  0  0  0  0  0  0  0  0
    9.0670   48.1160   53.7230 N   0  0  0  0  0  0  0  0  0  0  0  0
    7.2130   47.1370   52.6320 C   0  0  0  0  0  0  0  0  0  0  0  0
    6.4090   42.0340   48.6080 C   0  0  0  0  0  0  0  0  0  0  0  0
    6.0490   45.1070   50.4040 O   0  0  0  0  0  0  0  0  0  0  0  0
    7.3020   44.8770   50.2950 C   0  0  0  0  0  0  0  0  0  0  0  0
    4.8760   46.8970   53.0240 C   0  0  0  0  0  0  0  0  0  0  0  0
    3.6810   46.5200   52.4830 C   0  0  0  0  0  0  0  0  0  0  0  0
    4.0650   40.6550   48.6270 C   0  0  0  0  0  0  0  0  0  0  0  0
    8.3290   45.5660   50.9650 C   0  0  0  0  0  0  0  0  0  0  0  0
    5.9760   46.9670   52.4060 N   0  0  0  0  0  0  0  0  0  0  0  0
    2.8450   45.5530   54.5950 C   0  0  0  0  0  0  0  0  0  0  0  0
    9.7540   47.0360   52.6300 S   0  0  0  0  0  0  0  0  0  0  0  0
    5.1220   46.3580   54.4440 C   0  0  0  0  0  0  0  0  0  0  0  0
    9.4920   44.8780   50.4430 C   0  0  0  0  0  0  0  0  0  0  0  0
    5.8290   41.6480   47.3580 C   0  0  0  0  0  0  0  0  0  0  0  0
    1.6830   45.0750   55.4230 C   0  0  0  0  0  0  0  0  0  0  0  0
    2.6180   45.9320   53.2580 C   0  0  0  0  0  0  0  0  0  0  0  0
    4.6750   41.1060   49.8000 C   0  0  0  0  0  0  0  0  0  0  0  0
   10.7720   45.2460   50.7410 N   0  0  0  0  0  0  0  0  0  0  0  0
    7.8340   43.7600   49.4640 C   0  0  0  0  0  0  0  0  0  0  0  0
    4.0900   45.8190   55.1010 C   0  0  0  0  0  0  0  0  0  0  0  0
    8.2770   46.5130   51.9780 C   0  0  0  0  0  0  0  0  0  0  0  0
    5.8560   41.7820   49.7820 C   0  0  0  0  0  0  0  0  0  0  0  0
  1 18  1  0
  2 12  4  0
  3  7  1  0
  3 24  1  0
  4  5  4  0
  6  4  4  0
  7 27  4  0
  9  8  2  0
  9 13  1  0
 10 17  4  0
 11 10  4  0
 11 21  4  0
 12 22  4  0
 13 26  1  0
 14  6  1  0
 14 10  1  0
 15 25  4  0
 15 20  1  0
 16  5  4  0
 17 25  4  0
 18 23  1  0
 18 13  2  0
 19  2  4  0
 19  7  4  0
 21 15  4  0
 24  1  2  0
 24  9  1  0
 26 16  4  0
 26  6  4  0
 27 22  4  0
M  END
$$$$

     RDKit          3D

 36 39  0  0  0  0  0  0  0  0999 V2000
    4.1500   46.4260   54.5130 C   0  0  0  0  0  0  0  0  0  0  0  0
    8.4550   48.2990   53.3030 C   0  0  0  0  0  0  0  0  0  0  0  0
    2.6200   45.8160   52.9690 C   0  0  0  0  0  0  0  0  0  0  0  0
    6.9090   45.0120   50.3680 S   0  0  0  0  0  0  0  0  0  0  0  0
    8.4760   45.5660   51.0230 C   0  0  0  0  0  0  0  0  0  0  0  0
    2.4380   44.9960   54.2370 C   0  0  0  0  0  0  0  0  0  0  0  0
    6.5850   46.9840   52.8820 C   0  0  0  0  0  0  0  0  0  0  0  0
    4.0930   46.3280   53.0440 C   0  0  0  0  0  0  0  0  0  0  0  0
    4.6650   40.9050   47.3570 C   0  0  0  0  0  0  0  0  0  0  0  0
    3.7290   44.9920   55.0720 C   0  0  0  0  0  0  0  0  0  0  0  0
    4.6340   41.1050   49.8100 C   0  0  0  0  0  0  0  0  0  0  0  0
    5.7920   41.7840   49.8160 C   0  0  0  0  0  0  0  0  0  0  0  0
    9.5050   44.9370   50.4840 C   0  0  0  0  0  0  0  0  0  0  0  0
    5.4400   46.5920   52.2980 N   0  0  0  0  0  0  0  0  0  0  0  0
    9.9030   46.5990   52.6220 N   0  0  0  0  0  0  0  0  0  0  0  0
    9.7630   47.5910   53.7270 C   0  0  0  0  0  0  0  0  0  0  0  0
    7.8620   47.1500   52.6740 N   0  0  0  0  0  0  0  0  0  0  0  0
    3.2290   44.6720   50.9590 O   0  0  0  0  0  0  0  0  0  0  0  0
    4.2490   41.3500   45.0730 O   0  0  0  0  0  0  0  0  0  0  0  0
    9.0710   43.9680   49.5450 N   0  0  0  0  0  0  0  0  0  0  0  0
    8.7320   46.4440   52.1060 C   0  0  0  0  0  0  0  0  0  0  0  0
    0.1990   45.1020   52.0540 O   0  0  0  0  0  0  0  0  0  0  0  0
   10.7860   45.1090   50.7570 N   0  0  0  0  0  0  0  0  0  0  0  0
    1.2920   45.0420   56.3280 C   0  0  0  0  0  0  0  0  0  0  0  0
    7.8610   43.7560   49.3720 C   0  0  0  0  0  0  0  0  0  0  0  0
    4.0990   40.6340   48.6460 C   0  0  0  0  0  0  0  0  0  0  0  0
    7.6070   42.7710   48.5050 N   0  0  0  0  0  0  0  0  0  0  0  0
    6.4030   42.0820   48.6080 C   0  0  0  0  0  0  0  0  0  0  0  0
    1.1140   44.4200   51.6170 N   0  0  0  0  0  0  0  0  0  0  0  0
    1.3160   45.5460   55.0320 N   0  0  0  0  0  0  0  0  0  0  0  0
    2.3690   45.0350   51.7350 C   0  0  0  0  0  0  0  0  0  0  0  0
    2.4210   40.3450   46.2550 C   0  0  0  0  0  0  0  0  0  0  0  0
    0.8420   43.1300   51.1290 C   0  0  0  0  0  0  0  0  0  0  0  0
    3.9680   40.4140   46.1240 C   0  0  0  0  0  0  0  0  0  0  0  0
    6.4820   47.3140   54.2140 O   0  0  0  0  0  0  0  0  0  0  0  0
    5.8460   41.6780   47.3770 C   0  0  0  0  0  0  0  0  0  0  0  0
  1 10  1  0
  2 16  1  0
  3 31  1  0
  3  8  1  0
  3  6  1  0
  4  5  1  0
  5 21  2  3
  6 30  1  0
  6 10  1  0
  7 35  2  0
  8  1  1  0
  9 36  4  0
  9 26  4  0
 11 12  4  0
 13 23  2  0
 13  5  1  0
 14  7  1  0
 14  8  2  3
 15 16  1  0
 17  7  1  0
 17  2  1  0
 18 31  2  0
 19 34  1  0
 20 13  1  0
 21 15  1  0
 21 17  1  0
 25 20  2  0
 25  4  1  0
 26 11  4  0
 27 28  1  0
 27 25  1  0
 28 12  4  0
 29 31  1  0
 29 22  1  0
 30 24  1  0
 33 29  1  0
 34 32  1  0
 34  9  1  0
 36 28  4  0
M  END
$$$$

     RDKit          3D

 18 19  0  0  0  0  0  0  0  0999 V2000
    9.4070   44.9130   50.5160 C   0  0  0  0  0  0  0  0  0  0  0  0
    6.4160   42.0850   48.5820 C   0  0  0  0  0  0  0  0  0  0  0  0
    4.6240   40.9510   47.3630 C   0  0  0  0  0  0  0  0  0  0  0  0
    9.0290   43.8890   49.5420 N   0  0  0  0  0  0  0  0  0  0  0  0
    4.6690   41.0980   49.8080 C   0  0  0  0  0  0  0  0  0  0  0  0
    5.9680   45.6290   51.7020 C   0  0  0  0  0  0  0  0  0  0  0  0
    9.7220   47.0320   52.5750 N   0  0  0  0  0  0  0  0  0  0  0  0
    7.3210   47.2510   52.4850 N   0  0  0  0  0  0  0  0  0  0  0  0
    8.4290   46.6080   52.0860 C   0  0  0  0  0  0  0  0  0  0  0  0
    8.2690   45.4640   51.1470 C   0  0  0  0  0  0  0  0  0  0  0  0
    7.5940   42.7660   48.5210 N   0  0  0  0  0  0  0  0  0  0  0  0
    5.8620   41.8220   49.8410 C   0  0  0  0  0  0  0  0  0  0  0  0
    6.0690   46.6970   52.5420 C   0  0  0  0  0  0  0  0  0  0  0  0
   10.7690   45.1860   50.7680 N   0  0  0  0  0  0  0  0  0  0  0  0
    6.9190   45.1130   50.9880 N   0  0  0  0  0  0  0  0  0  0  0  0
    5.8460   41.6200   47.4560 C   0  0  0  0  0  0  0  0  0  0  0  0
    8.0040   43.6080   49.2710 C   0  0  0  0  0  0  0  0  0  0  0  0
    4.0450   40.6370   48.6080 C   0  0  0  0  0  0  0  0  0  0  0  0
  1 14  2  0
  1 10  1  0
  2 12  4  0
  3 16  4  0
  3 18  4  0
  4  1  1  0
  5 12  4  0
  6 13  1  0
  8 13  1  0
  9  8  1  0
  9  7  1  0
 10  9  2  0
 11  2  1  0
 11 17  1  0
 15 10  1  0
 15  6  2  0
 16  2  4  0
 17  4  2  3
 18  5  4  0
M  END
$$$$

     RDKit          3D

 28 31  0  0  0  0  0  0  0  0999 V2000
    9.1250   44.0150   49.4910 N   0  0  0  0  0  0  0  0  0  0  0  0
    2.0570   43.6610   53.3560 C   0  0  0  0  0  0  0  0  0  0  0  0
    2.8450   45.5360   51.6100 C   0  0  0  0  0  0  0  0  0  0  0  0
    1.4050   44.9230   53.9950 C   0  0  0  0  0  0  0  0  0  0  0  0
    9.5390   45.7920   51.2440 C   0  0  0  0  0  0  0  0  0  0  0  0
    9.6340   46.6890   52.2130 N   0  0  0  0  0  0  0  0  0  0  0  0
    7.1400   46.6980   52.7380 C   0  0  0  0  0  0  0  0  0  0  0  0
    2.3480   44.0370   51.8370 C   0  0  0  0  0  0  0  0  0  0  0  0
    4.6650   40.9200   47.3850 C   0  0  0  0  0  0  0  0  0  0  0  0
    4.0760   40.6310   48.6650 C   0  0  0  0  0  0  0  0  0  0  0  0
    8.1910   45.4140   50.7920 C   0  0  0  0  0  0  0  0  0  0  0  0
    6.4590   42.0420   48.5980 C   0  0  0  0  0  0  0  0  0  0  0  0
    3.4380   46.2020   52.8420 C   0  0  0  0  0  0  0  0  0  0  0  0
    2.5630   45.8680   54.0610 C   0  0  0  0  0  0  0  0  0  0  0  0
    4.5930   41.0520   49.7650 C   0  0  0  0  0  0  0  0  0  0  0  0
    4.9010   46.3180   52.7700 C   0  0  0  0  0  0  0  0  0  0  0  0
    8.5270   47.1120   52.9340 C   0  0  0  0  0  0  0  0  0  0  0  0
    5.9220   47.0470   53.3260 N   0  0  0  0  0  0  0  0  0  0  0  0
   10.8220   45.2520   50.7420 N   0  0  0  0  0  0  0  0  0  0  0  0
    8.7530   48.4870   54.0410 Cl  0  0  0  0  0  0  0  0  0  0  0  0
    5.8780   41.6300   47.4170 C   0  0  0  0  0  0  0  0  0  0  0  0
    7.6160   42.7660   48.5610 N   0  0  0  0  0  0  0  0  0  0  0  0
    7.0120   45.7980   51.7180 N   0  0  0  0  0  0  0  0  0  0  0  0
    5.6250   45.4040   51.7640 C   0  0  0  0  0  0  0  0  0  0  0  0
    7.5130   44.6520   50.0970 N   0  0  0  0  0  0  0  0  0  0  0  0
    1.1030   42.4680   53.6440 N   0  0  0  0  0  0  0  0  0  0  0  0
    7.9880   43.7770   49.4000 C   0  0  0  0  0  0  0  0  0  0  0  0
    5.8710   41.7590   49.8170 C   0  0  0  0  0  0  0  0  0  0  0  0
  2 26  1  0
  2  4  1  0
  3  8  1  0
  3 13  1  0
  4 14  1  0
  5  6  4  0
  6 17  4  0
  7 17  4  0
  7 18  4  0
  8  2  1  0
  9 21  4  0
  9 10  4  0
 10 15  4  0
 11  5  4  0
 11 23  4  0
 12 28  4  0
 13 16  1  0
 13 14  1  0
 15 28  4  0
 16 18  4  0
 17 20  1  0
 19  5  1  0
 21 12  4  0
 22 12  1  0
 22 27  1  0
 23 24  4  0
 23  7  4  0
 24 16  4  0
 25 11  1  0
 27  1  2  0
 27 25  1  0
M  END
$$$$

     RDKit          3D

 23 25  0  0  0  0  0  0  0  0999 V2000
    6.4730   42.0630   48.5740 C   0  0  0  0  0  0  0  0  0  0  0  0
    4.0570   40.6260   48.5990 C   0  0  0  0  0  0  0  0  0  0  0  0
    4.6630   40.9630   47.4570 C   0  0  0  0  0  0  0  0  0  0  0  0
    5.8720   41.7500   49.8000 C   0  0  0  0  0  0  0  0  0  0  0  0
    3.8760   45.1710   52.9920 C   0  0  0  0  0  0  0  0  0  0  0  0
    8.3140   45.5040   51.0520 C   0  0  0  0  0  0  0  0  0  0  0  0
    9.0290   46.9690   53.0930 C   0  0  0  0  0  0  0  0  0  0  0  0
    5.8660   41.6190   47.3760 C   0  0  0  0  0  0  0  0  0  0  0  0
    6.8700   44.8530   50.2920 S   0  0  0  0  0  0  0  0  0  0  0  0
    7.1020   47.7570   53.7050 N   0  0  0  0  0  0  0  0  0  0  0  0
    7.8110   43.7940   49.4040 C   0  0  0  0  0  0  0  0  0  0  0  0
    3.7190   45.6400   55.4240 C   0  0  0  0  0  0  0  0  0  0  0  0
    7.5940   42.8000   48.4930 N   0  0  0  0  0  0  0  0  0  0  0  0
    8.1180   46.4120   52.1930 C   0  0  0  0  0  0  0  0  0  0  0  0
    6.8990   46.9490   52.6330 C   0  0  0  0  0  0  0  0  0  0  0  0
    8.4070   47.7300   54.0250 N   0  0  0  0  0  0  0  0  0  0  0  0
    5.5310   46.6670   52.0410 C   0  0  0  0  0  0  0  0  0  0  0  0
    9.5140   44.9020   50.5040 C   0  0  0  0  0  0  0  0  0  0  0  0
    9.0880   43.9290   49.6310 N   0  0  0  0  0  0  0  0  0  0  0  0
    4.4400   46.5260   52.8780 N   0  0  0  0  0  0  0  0  0  0  0  0
    4.6940   41.0700   49.8150 C   0  0  0  0  0  0  0  0  0  0  0  0
   10.7790   45.1580   50.7220 N   0  0  0  0  0  0  0  0  0  0  0  0
    4.2960   44.6990   54.3670 C   0  0  0  0  0  0  0  0  0  0  0  0
  1  4  4  0
  2 21  4  0
  3  2  4  0
  4 21  4  0
  5 23  1  0
  6 14  1  0
  7 16  4  0
  8  3  4  0
  8  1  4  0
  9  6  1  0
 10 16  4  0
 11 19  2  0
 11  9  1  0
 13  1  1  0
 13 11  1  0
 14 15  4  0
 14  7  4  0
 15 10  4  0
 17 15  1  0
 17 20  1  0
 18 22  2  0
 18  6  1  0
 19 18  1  0
 20  5  1  0
 23 12  1  0
M  END
$$$$

     RDKit          3D

 27 30  0  0  0  0  0  0  0  0999 V2000
    6.8040   46.3840   52.3740 C   0  0  0  0  0  0  0  0  0  0  0  0
    9.4380   47.1550   52.6080 S   0  0  0  0  0  0  0  0  0  0  0  0
    8.0840   46.3510   51.9480 C   0  0  0  0  0  0  0  0  0  0  0  0
    4.6830   40.8860   47.3790 C   0  0  0  0  0  0  0  0  0  0  0  0
    7.6080   42.7890   48.5190 N   0  0  0  0  0  0  0  0  0  0  0  0
   10.7820   45.2090   50.7780 N   0  0  0  0  0  0  0  0  0  0  0  0
    5.8480   41.6450   47.3520 C   0  0  0  0  0  0  0  0  0  0  0  0
    1.9230   46.1650   52.8050 C   0  0  0  0  0  0  0  0  0  0  0  0
    4.0380   46.7380   53.9150 C   0  0  0  0  0  0  0  0  0  0  0  0
    2.4160   45.3940   55.0580 C   0  0  0  0  0  0  0  0  0  0  0  0
    5.8810   41.6860   49.7780 C   0  0  0  0  0  0  0  0  0  0  0  0
    9.4760   44.8760   50.3750 C   0  0  0  0  0  0  0  0  0  0  0  0
    8.4230   45.4540   50.9240 N   0  0  0  0  0  0  0  0  0  0  0  0
    8.6700   48.1500   53.4850 C   0  0  0  0  0  0  0  0  0  0  0  0
    6.5080   42.0520   48.5900 C   0  0  0  0  0  0  0  0  0  0  0  0
    4.6790   41.1020   49.8320 C   0  0  0  0  0  0  0  0  0  0  0  0
    9.1010   43.9460   49.5890 N   0  0  0  0  0  0  0  0  0  0  0  0
    6.5500   47.1810   53.4170 C   0  0  0  0  0  0  0  0  0  0  0  0
    4.1520   46.2470   52.5390 N   0  0  0  0  0  0  0  0  0  0  0  0
    5.3350   47.2890   54.2120 N   0  0  0  0  0  0  0  0  0  0  0  0
    7.9530   43.7270   49.3670 C   0  0  0  0  0  0  0  0  0  0  0  0
    1.8270   45.0740   53.7530 C   0  0  0  0  0  0  0  0  0  0  0  0
    7.4280   48.0380   53.8980 N   0  0  0  0  0  0  0  0  0  0  0  0
    7.2600   44.7050   50.2140 C   0  0  0  0  0  0  0  0  0  0  0  0
    4.0800   40.6190   48.6260 C   0  0  0  0  0  0  0  0  0  0  0  0
    3.8560   45.4530   54.6930 C   0  0  0  0  0  0  0  0  0  0  0  0
    3.0550   46.6230   52.0300 C   0  0  0  0  0  0  0  0  0  0  0  0
  1 18  1  0
  2 14  1  0
  3  1  2  0
  3  2  1  0
  4 25  4  0
  5 15  1  0
  5 21  1  0
  7  4  4  0
  7 15  4  0
  8 22  1  0
  9 20  1  0
  9 26  1  0
 11 16  4  0
 12  6  1  0
 12 13  1  0
 13  3  1  0
 14 23  1  0
 15 11  4  0
 17 12  1  0
 18 23  2  0
 18 20  1  0
 19  9  1  0
 21 17  2  0
 21 24  1  0
 22 10  1  0
 24 13  1  0
 25 16  4  0
 26 10  1  0
 27 19  1  0
 27  8  1  0
M  END
$$$$

     RDKit          3D

 28 30  0  0  0  0  0  0  0  0999 V2000
    4.0260   46.2070   53.9820 N   0  0  0  0  0  0  0  0  0  0  0  0
    7.1030   46.1800   51.9710 C   0  0  0  0  0  0  0  0  0  0  0  0
    3.3400   45.7620   51.6280 C   0  0  0  0  0  0  0  0  0  0  0  0
    5.8540   41.8420   49.8120 C   0  0  0  0  0  0  0  0  0  0  0  0
    1.8240   45.4130   51.7470 C   0  0  0  0  0  0  0  0  0  0  0  0
    1.6070   44.0640   52.4380 C   0  0  0  0  0  0  0  0  0  0  0  0
    5.8530   41.6420   47.3940 C   0  0  0  0  0  0  0  0  0  0  0  0
    7.9310   43.7230   49.4130 C   0  0  0  0  0  0  0  0  0  0  0  0
    7.0740   47.1010   53.0550 C   0  0  0  0  0  0  0  0  0  0  0  0
    3.0570   45.9180   55.0850 C   0  0  0  0  0  0  0  0  0  0  0  0
    4.0420   40.6710   48.6400 C   0  0  0  0  0  0  0  0  0  0  0  0
    1.7110   44.1600   54.0100 C   0  0  0  0  0  0  0  0  0  0  0  0
    7.4630   44.8150   50.0050 S   0  0  0  0  0  0  0  0  0  0  0  0
    6.0490   47.4850   53.8550 N   0  0  0  0  0  0  0  0  0  0  0  0
    9.8980   46.7680   52.2570 N   0  0  0  0  0  0  0  0  0  0  0  0
    4.6730   40.9350   47.3900 C   0  0  0  0  0  0  0  0  0  0  0  0
    9.2860   47.6100   53.0530 C   0  0  0  0  0  0  0  0  0  0  0  0
    8.1080   45.6800   51.0830 C   0  0  0  0  0  0  0  0  0  0  0  0
    4.6430   41.1270   49.8080 C   0  0  0  0  0  0  0  0  0  0  0  0
    8.1400   47.6810   53.5870 N   0  0  0  0  0  0  0  0  0  0  0  0
    1.7610   45.6650   54.5190 C   0  0  0  0  0  0  0  0  0  0  0  0
    6.4810   42.1140   48.5150 C   0  0  0  0  0  0  0  0  0  0  0  0
    4.1580   45.3630   52.8100 C   0  0  0  0  0  0  0  0  0  0  0  0
    7.5820   42.7900   48.5050 N   0  0  0  0  0  0  0  0  0  0  0  0
   10.7760   45.2040   50.7900 N   0  0  0  0  0  0  0  0  0  0  0  0
    4.8770   47.3450   54.2100 C   0  0  0  0  0  0  0  0  0  0  0  0
    9.5900   45.8610   51.3240 C   0  0  0  0  0  0  0  0  0  0  0  0
    9.1470   43.9800   49.5800 N   0  0  0  0  0  0  0  0  0  0  0  0
  1 26  1  0
  1 10  1  0
  2  9  1  0
  3  5  1  0
  3 23  1  0
  5  6  1  0
  6 12  1  0
  7 22  4  0
  8 28  2  0
  8 13  1  0
  9 20  2  0
  9 14  1  0
 11 19  4  0
 12 21  1  0
 13 18  1  0
 14 26  1  0
 15 17  1  0
 16  7  4  0
 16 11  4  0
 17 20  1  0
 18 27  1  0
 18  2  2  0
 19  4  4  0
 21 10  1  0
 22  4  4  0
 23  1  1  0
 24 22  1  0
 24  8  1  0
 25 27  1  0
 27 15  2  0
M  END
$$$$

     RDKit          3D

 23 25  0  0  0  0  0  0  0  0999 V2000
    2.8720   44.9920   53.2270 C   0  0  0  0  0  0  0  0  0  0  0  0
    4.6950   40.9160   47.3850 C   0  0  0  0  0  0  0  0  0  0  0  0
    8.2680   45.6430   51.1480 N   0  0  0  0  0  0  0  0  0  0  0  0
   10.7840   45.1650   50.7370 N   0  0  0  0  0  0  0  0  0  0  0  0
    2.1640   45.8410   52.3100 C   0  0  0  0  0  0  0  0  0  0  0  0
    4.6680   41.0820   49.8220 C   0  0  0  0  0  0  0  0  0  0  0  0
    5.8500   41.6170   47.4050 C   0  0  0  0  0  0  0  0  0  0  0  0
    9.7330   47.0110   52.5520 O   0  0  0  0  0  0  0  0  0  0  0  0
    4.8970   46.0780   52.4890 C   0  0  0  0  0  0  0  0  0  0  0  0
    9.3920   44.8530   50.4050 C   0  0  0  0  0  0  0  0  0  0  0  0
    2.8840   46.9360   51.7340 C   0  0  0  0  0  0  0  0  0  0  0  0
    4.2470   45.0820   53.3650 C   0  0  0  0  0  0  0  0  0  0  0  0
    7.9770   43.8730   49.0670 C   0  0  0  0  0  0  0  0  0  0  0  0
    8.6370   46.5930   52.1860 C   0  0  0  0  0  0  0  0  0  0  0  0
    4.3320   47.1190   51.9640 N   0  0  0  0  0  0  0  0  0  0  0  0
    5.9380   41.7320   49.8010 C   0  0  0  0  0  0  0  0  0  0  0  0
    7.5610   42.7580   48.4760 N   0  0  0  0  0  0  0  0  0  0  0  0
    9.0740   43.9520   49.5180 N   0  0  0  0  0  0  0  0  0  0  0  0
    6.2810   46.0620   52.1210 C   0  0  0  0  0  0  0  0  0  0  0  0
    6.4260   42.0360   48.5640 C   0  0  0  0  0  0  0  0  0  0  0  0
    7.2530   46.8310   52.9070 C   0  0  0  0  0  0  0  0  0  0  0  0
    4.0950   40.6450   48.6160 C   0  0  0  0  0  0  0  0  0  0  0  0
    6.9680   45.4330   51.0360 N   0  0  0  0  0  0  0  0  0  0  0  0
  1 12  1  0
  2  7  4  0
  2 22  4  0
  3 14  1  0
  5  1  2  0
  7 20  4  0
  9 19  1  0
  9 12  1  0
 10  4  2  0
 10  3  1  0
 11 15  1  0
 11  5  1  0
 13 18  2  3
 14  8  2  0
 14 21  1  0
 15  9  1  0
 16  6  4  0
 17 20  1  0
 17 13  1  0
 18 10  1  0
 19 21  1  0
 20 16  4  0
 22  6  4  0
 23  3  1  0
 23 19  2  0
M  END
$$$$

     RDKit          3D

 27 28  0  0  0  0  0  0  0  0999 V2000
    8.4840   45.4900   51.2910 C   0  0  0  0  0  0  0  0  0  0  0  0
    6.2390   45.8360   52.1660 C   0  0  0  0  0  0  0  0  0  0  0  0
    6.8450   47.7340   54.0710 C   0  0  0  0  0  0  0  0  0  0  0  0
    2.8930   46.7400   53.5690 C   0  0  0  0  0  0  0  0  0  0  0  0
    4.6710   41.1260   49.8040 C   0  0  0  0  0  0  0  0  0  0  0  0
   10.2960   46.4000   52.5340 O   0  0  0  0  0  0  0  0  0  0  0  0
    3.4670   44.9570   52.0260 C   0  0  0  0  0  0  0  0  0  0  0  0
    5.8710   41.6300   47.4050 C   0  0  0  0  0  0  0  0  0  0  0  0
    7.6280   42.7470   48.5620 N   0  0  0  0  0  0  0  0  0  0  0  0
    1.7320   45.9170   54.1140 C   0  0  0  0  0  0  0  0  0  0  0  0
    3.9630   45.8120   53.0820 N   0  0  0  0  0  0  0  0  0  0  0  0
    7.8330   47.2460   53.1540 C   0  0  0  0  0  0  0  0  0  0  0  0
    9.8770   45.7150   51.4880 C   0  0  0  0  0  0  0  0  0  0  0  0
    5.7850   41.8600   49.8330 C   0  0  0  0  0  0  0  0  0  0  0  0
    7.0810   42.7980   49.5420 C   0  0  0  0  0  0  0  0  0  0  0  0
    8.4230   44.4480   50.3250 C   0  0  0  0  0  0  0  0  0  0  0  0
    7.4120   46.3180   52.3740 N   0  0  0  0  0  0  0  0  0  0  0  0
    5.2590   46.3740   53.1080 C   0  0  0  0  0  0  0  0  0  0  0  0
    2.0130   44.4670   54.1550 C   0  0  0  0  0  0  0  0  0  0  0  0
    9.0340   43.9330   49.4810 N   0  0  0  0  0  0  0  0  0  0  0  0
    4.0750   40.6750   48.6430 C   0  0  0  0  0  0  0  0  0  0  0  0
    7.7440   44.7910   50.8770 N   0  0  0  0  0  0  0  0  0  0  0  0
   10.7410   45.2140   50.6440 N   0  0  0  0  0  0  0  0  0  0  0  0
    5.5360   47.2760   54.0000 N   0  0  0  0  0  0  0  0  0  0  0  0
    4.6630   40.9040   47.3940 C   0  0  0  0  0  0  0  0  0  0  0  0
    6.4410   42.1180   48.5680 C   0  0  0  0  0  0  0  0  0  0  0  0
    2.4200   44.0750   52.7610 C   0  0  0  0  0  0  0  0  0  0  0  0
  2 17  4  0
  2 18  4  0
  4 10  1  0
  5 14  2  0
  7 27  1  0
  7 11  1  0
  9 26  1  0
 10 19  1  0
 11 18  1  0
 11  4  1  0
 12  3  4  0
 13  6  1  0
 15  9  1  0
 15 14  1  0
 16 22  1  0
 17 12  4  0
 18 24  4  0
 20 16  3  0
 21  5  1  0
 22  1  1  0
 23 13  2  0
 24  3  4  0
 25  8  1  0
 25 21  2  0
 26  8  1  0
 26 15  1  0
 26 14  1  0
 27 19  1  0
M  END
$$$$

     RDKit          3D

 36 40  0  0  0  0  0  0  0  0999 V2000
    6.7080   44.5410   49.9550 S   0  0  0  0  0  0  0  0  0  0  0  0
    7.0060   48.6030   53.4290 Cl  0  0  0  0  0  0  0  0  0  0  0  0
    4.5620   41.1010   49.7810 C   0  0  0  0  0  0  0  0  0  0  0  0
    5.7910   41.7940   49.8490 C   0  0  0  0  0  0  0  0  0  0  0  0
    8.6630   45.7130   51.1890 C   0  0  0  0  0  0  0  0  0  0  0  0
    3.4180   45.3350   51.1730 C   0  0  0  0  0  0  0  0  0  0  0  0
    4.7160   45.9740   53.5600 C   0  0  0  0  0  0  0  0  0  0  0  0
    2.2710   39.9410   47.0510 N   0  0  0  0  0  0  0  0  0  0  0  0
    2.9400   47.3620   52.9960 F   0  0  0  0  0  0  0  0  0  0  0  0
    1.4540   45.4810   55.2980 N   0  0  0  0  0  0  0  0  0  0  0  0
    5.8610   41.6520   47.4310 C   0  0  0  0  0  0  0  0  0  0  0  0
    2.7020   46.1590   50.5420 F   0  0  0  0  0  0  0  0  0  0  0  0
    5.1620   46.6000   52.2940 N   0  0  0  0  0  0  0  0  0  0  0  0
    1.8900   44.0780   52.6660 C   0  0  0  0  0  0  0  0  0  0  0  0
    7.6550   46.5300   51.6990 C   0  0  0  0  0  0  0  0  0  0  0  0
    7.9380   43.6330   49.2570 C   0  0  0  0  0  0  0  0  0  0  0  0
    2.8320   39.7700   48.2680 C   0  0  0  0  0  0  0  0  0  0  0  0
    4.0500   40.6180   48.5670 C   0  0  0  0  0  0  0  0  0  0  0  0
    9.1070   43.9040   49.6270 N   0  0  0  0  0  0  0  0  0  0  0  0
    3.4820   44.0460   50.6330 O   0  0  0  0  0  0  0  0  0  0  0  0
   10.3450   46.8610   52.4010 N   0  0  0  0  0  0  0  0  0  0  0  0
    2.7550   45.0940   52.5490 C   0  0  0  0  0  0  0  0  0  0  0  0
    9.9470   45.9370   51.5460 C   0  0  0  0  0  0  0  0  0  0  0  0
    4.9970   45.0040   54.7220 C   0  0  0  0  0  0  0  0  0  0  0  0
    6.4080   42.0370   48.6110 C   0  0  0  0  0  0  0  0  0  0  0  0
    0.9660   43.6620   53.6410 C   0  0  0  0  0  0  0  0  0  0  0  0
    8.5110   44.7140   50.2310 C   0  0  0  0  0  0  0  0  0  0  0  0
    4.8330   45.8250   51.0950 C   0  0  0  0  0  0  0  0  0  0  0  0
    7.6010   42.7380   48.5330 N   0  0  0  0  0  0  0  0  0  0  0  0
    8.1330   47.5200   52.6090 C   0  0  0  0  0  0  0  0  0  0  0  0
    0.9040   44.3770   54.8190 C   0  0  0  0  0  0  0  0  0  0  0  0
    2.6730   45.9980   54.9350 C   0  0  0  0  0  0  0  0  0  0  0  0
    9.4040   47.6800   52.9200 C   0  0  0  0  0  0  0  0  0  0  0  0
    3.1670   46.0960   53.5270 C   0  0  0  0  0  0  0  0  0  0  0  0
    4.6980   40.9710   47.3660 C   0  0  0  0  0  0  0  0  0  0  0  0
   10.7960   45.1940   50.7410 N   0  0  0  0  0  0  0  0  0  0  0  0
  1 27  1  0
  3  4  4  0
  5 23  4  0
  5 15  4  0
  6 12  1  0
  6 22  1  0
  7 24  1  0
  8 17  1  0
 11 25  4  0
 13  7  1  0
 14 26  1  0
 15 30  4  0
 16 29  1  0
 16 19  1  0
 16  1  1  0
 16 27  1  0
 17 18  1  0
 18  3  4  0
 19 27  1  0
 20  6  1  0
 21 33  4  0
 22 14  2  0
 22 34  1  0
 23 21  4  0
 25  4  4  0
 26 31  2  0
 27  5  1  0
 28  6  1  0
 28 13  1  0
 29 25  1  0
 30 33  4  0
 30  2  1  0
 31 10  1  0
 32 10  1  0
 34  9  1  0
 34  7  1  0
 34 32  1  0
 35 11  4  0
 35 18  4  0
 36 23  1  0
M  END
$$$$

     RDKit          3D

 27 29  0  0  0  0  0  0  0  0999 V2000
    5.8250   41.8320   49.8020 C   0  0  0  0  0  0  0  0  0  0  0  0
    9.1130   43.9940   49.5960 N   0  0  0  0  0  0  0  0  0  0  0  0
    2.3690   45.7330   55.6700 Cl  0  0  0  0  0  0  0  0  0  0  0  0
    7.0710   45.4810   51.0500 C   0  0  0  0  0  0  0  0  0  0  0  0
    4.4030   45.9440   53.8120 C   0  0  0  0  0  0  0  0  0  0  0  0
    4.6630   41.1260   49.7980 C   0  0  0  0  0  0  0  0  0  0  0  0
    5.8900   41.6460   47.3830 C   0  0  0  0  0  0  0  0  0  0  0  0
    8.9830   46.7640   52.0960 N   0  0  0  0  0  0  0  0  0  0  0  0
    4.6580   40.9060   47.4010 C   0  0  0  0  0  0  0  0  0  0  0  0
    4.6720   46.1350   52.4680 C   0  0  0  0  0  0  0  0  0  0  0  0
    8.7970   48.4000   53.5800 O   0  0  0  0  0  0  0  0  0  0  0  0
    7.5980   42.7640   48.5550 N   0  0  0  0  0  0  0  0  0  0  0  0
    3.4450   46.3770   51.8720 C   0  0  0  0  0  0  0  0  0  0  0  0
    3.0240   45.9680   54.1140 C   0  0  0  0  0  0  0  0  0  0  0  0
    6.4780   42.0910   48.5820 C   0  0  0  0  0  0  0  0  0  0  0  0
    8.2910   47.4070   53.0070 C   0  0  0  0  0  0  0  0  0  0  0  0
    6.8620   44.4450   50.1770 C   0  0  0  0  0  0  0  0  0  0  0  0
    7.7850   43.7360   49.4970 C   0  0  0  0  0  0  0  0  0  0  0  0
    2.3870   46.2750   52.8390 C   0  0  0  0  0  0  0  0  0  0  0  0
    0.7710   46.2580   52.3300 Cl  0  0  0  0  0  0  0  0  0  0  0  0
    9.4430   44.9190   50.4680 C   0  0  0  0  0  0  0  0  0  0  0  0
   10.8000   45.1950   50.7780 N   0  0  0  0  0  0  0  0  0  0  0  0
    5.5250   45.4330   55.1090 Cl  0  0  0  0  0  0  0  0  0  0  0  0
    8.4520   45.7970   51.2540 C   0  0  0  0  0  0  0  0  0  0  0  0
    7.0480   46.9970   53.2580 N   0  0  0  0  0  0  0  0  0  0  0  0
    5.8850   46.0840   51.6820 N   0  0  0  0  0  0  0  0  0  0  0  0
    4.0730   40.6480   48.6180 C   0  0  0  0  0  0  0  0  0  0  0  0
  2 21  4  0
  4 24  4  0
  4 26  1  0
  5 14  1  0
  5 23  1  0
  6  1  4  0
  7  9  4  0
  7 15  4  0
  8 16  1  0
  9 27  4  0
 10  5  2  0
 12 15  1  0
 12 18  1  0
 13 10  1  0
 13 19  2  0
 14  3  1  0
 15  1  4  0
 16 25  1  0
 16 11  2  0
 17  4  4  0
 18  2  4  0
 18 17  4  0
 19 14  1  0
 20 19  1  0
 21 22  1  0
 21 24  4  0
 24  8  1  0
 26 10  1  0
 27  6  4  0
M  END
$$$$

     RDKit          3D

 18 19  0  0  0  0  0  0  0  0999 V2000
    9.4850   45.7210   51.2040 C   0  0  0  0  0  0  0  0  0  0  0  0
    8.1280   47.0450   52.5590 C   0  0  0  0  0  0  0  0  0  0  0  0
    4.0230   40.6230   48.6060 C   0  0  0  0  0  0  0  0  0  0  0  0
    9.4550   46.7630   52.2520 N   0  0  0  0  0  0  0  0  0  0  0  0
   10.7800   45.2330   50.7480 N   0  0  0  0  0  0  0  0  0  0  0  0
    8.0470   45.4850   51.0290 C   0  0  0  0  0  0  0  0  0  0  0  0
    5.8240   41.8450   49.8330 C   0  0  0  0  0  0  0  0  0  0  0  0
    6.4450   42.1090   48.5990 C   0  0  0  0  0  0  0  0  0  0  0  0
    7.1810   44.4910   50.1650 N   0  0  0  0  0  0  0  0  0  0  0  0
    4.6550   41.0490   49.8380 C   0  0  0  0  0  0  0  0  0  0  0  0
    8.0340   43.7890   49.5060 C   0  0  0  0  0  0  0  0  0  0  0  0
    7.6300   42.7440   48.5470 N   0  0  0  0  0  0  0  0  0  0  0  0
    9.0970   43.9740   49.5920 N   0  0  0  0  0  0  0  0  0  0  0  0
    7.7660   47.8980   53.4800 N   0  0  0  0  0  0  0  0  0  0  0  0
    7.2430   46.2590   51.7660 N   0  0  0  0  0  0  0  0  0  0  0  0
    4.6870   40.9450   47.4120 C   0  0  0  0  0  0  0  0  0  0  0  0
    5.7490   46.3930   51.8920 C   0  0  0  0  0  0  0  0  0  0  0  0
    5.8800   41.6140   47.3680 C   0  0  0  0  0  0  0  0  0  0  0  0
  1  4  4  0
  2 14  1  0
  3 10  4  0
  4  2  4  0
  5  1  1  0
  6  1  4  0
  6 15  4  0
  7 10  4  0
  8  7  4  0
  9  6  1  0
 11 13  2  0
 11  9  1  0
 12  8  1  0
 12 11  1  0
 15 17  1  0
 15  2  4  0
 16  3  4  0
 18 16  4  0
 18  8  4  0
M  END
$$$$

     RDKit          3D

 23 24  0  0  0  0  0  0  0  0999 V2000
    8.7950   48.1880   53.3320 O   0  0  0  0  0  0  0  0  0  0  0  0
    3.7780   46.0550   51.3760 C   0  0  0  0  0  0  0  0  0  0  0  0
    8.9500   46.5710   51.7300 N   0  0  0  0  0  0  0  0  0  0  0  0
    9.1180   43.9580   49.4950 N   0  0  0  0  0  0  0  0  0  0  0  0
    6.4280   42.0870   48.5910 C   0  0  0  0  0  0  0  0  0  0  0  0
    5.9660   47.0490   52.5750 N   0  0  0  0  0  0  0  0  0  0  0  0
    4.9480   46.7220   53.4850 C   0  0  0  0  0  0  0  0  0  0  0  0
    4.2760   44.9140   55.1320 C   0  0  0  0  0  0  0  0  0  0  0  0
    4.6530   40.8640   47.4120 C   0  0  0  0  0  0  0  0  0  0  0  0
    4.6280   41.0640   49.8170 C   0  0  0  0  0  0  0  0  0  0  0  0
    7.0390   46.9870   52.7870 C   0  0  0  0  0  0  0  0  0  0  0  0
    8.3050   47.2620   52.6590 C   0  0  0  0  0  0  0  0  0  0  0  0
    5.8470   41.6370   47.4180 C   0  0  0  0  0  0  0  0  0  0  0  0
    5.8890   41.8430   49.8070 C   0  0  0  0  0  0  0  0  0  0  0  0
    5.3970   45.4480   54.2860 C   0  0  0  0  0  0  0  0  0  0  0  0
    4.0620   40.7010   48.6230 C   0  0  0  0  0  0  0  0  0  0  0  0
    8.4620   45.6300   50.9130 C   0  0  0  0  0  0  0  0  0  0  0  0
    7.5880   42.8040   48.4980 N   0  0  0  0  0  0  0  0  0  0  0  0
    7.8430   43.7770   49.3590 C   0  0  0  0  0  0  0  0  0  0  0  0
    3.5620   46.5940   52.8630 C   0  0  0  0  0  0  0  0  0  0  0  0
   10.7660   45.2350   50.7490 N   0  0  0  0  0  0  0  0  0  0  0  0
    9.5440   44.9270   50.3190 C   0  0  0  0  0  0  0  0  0  0  0  0
    6.9990   44.9490   50.2970 S   0  0  0  0  0  0  0  0  0  0  0  0
  2 20  1  0
  3 12  1  0
  4 22  1  0
  5 14  4  0
  6 11  1  0
  6  7  1  0
  7 15  1  0
  9 13  4  0
  9 16  4  0
 12 11  1  0
 12  1  2  0
 13  5  4  0
 14 10  4  0
 15  8  1  0
 16 10  4  0
 17  3  2  3
 18  5  1  0
 18 19  1  0
 19  4  2  0
 19 23  1  0
 20  7  1  0
 22 21  2  0
 22 17  1  0
 23 17  1  0
M  END
$$$$

     RDKit          3D

 18 19  0  0  0  0  0  0  0  0999 V2000
    5.2960   46.9380   52.4740 N   0  0  0  0  0  0  0  0  0  0  0  0
    6.6610   45.4000   50.9540 N   0  0  0  0  0  0  0  0  0  0  0  0
    9.1610   45.4930   51.1660 C   0  0  0  0  0  0  0  0  0  0  0  0
    7.4950   46.7020   52.7130 N   0  0  0  0  0  0  0  0  0  0  0  0
    7.9610   45.0380   50.6050 C   0  0  0  0  0  0  0  0  0  0  0  0
   10.1610   47.0730   53.1740 Cl  0  0  0  0  0  0  0  0  0  0  0  0
    5.8720   41.6010   47.4230 C   0  0  0  0  0  0  0  0  0  0  0  0
    8.0750   43.9230   49.5430 C   0  0  0  0  0  0  0  0  0  0  0  0
    6.5810   46.3170   51.8910 C   0  0  0  0  0  0  0  0  0  0  0  0
    9.0610   43.9210   49.5700 N   0  0  0  0  0  0  0  0  0  0  0  0
    4.0420   40.6560   48.6150 C   0  0  0  0  0  0  0  0  0  0  0  0
    8.8790   46.3690   52.2520 C   0  0  0  0  0  0  0  0  0  0  0  0
    4.6470   41.1180   49.7820 C   0  0  0  0  0  0  0  0  0  0  0  0
    5.8530   41.8260   49.7850 C   0  0  0  0  0  0  0  0  0  0  0  0
    4.6420   40.9510   47.4270 C   0  0  0  0  0  0  0  0  0  0  0  0
    6.4510   42.1030   48.5990 C   0  0  0  0  0  0  0  0  0  0  0  0
   10.7370   45.1760   50.7200 N   0  0  0  0  0  0  0  0  0  0  0  0
    7.6590   42.7540   48.5400 N   0  0  0  0  0  0  0  0  0  0  0  0
  2  9  4  0
  3 12  4  0
  5  2  4  0
  5  3  4  0
  7 15  4  0
  7 16  4  0
  8 10  2  0
  8  5  1  0
  9  1  1  0
  9  4  4  0
 11 13  4  0
 12  4  4  0
 12  6  1  0
 13 14  4  0
 15 11  4  0
 16 14  4  0
 17  3  1  0
 18 16  1  0
 18  8  1  0
M  END
$$$$

     RDKit          3D

 23 25  0  0  0  0  0  0  0  0999 V2000
    5.8720   46.0090   53.3500 C   0  0  0  0  0  0  0  0  0  0  0  0
    5.8430   41.8200   49.8050 C   0  0  0  0  0  0  0  0  0  0  0  0
    1.8440   45.6760   54.5150 C   0  0  0  0  0  0  0  0  0  0  0  0
    5.8490   41.6690   47.3970 C   0  0  0  0  0  0  0  0  0  0  0  0
    8.2340   45.3410   51.1100 C   0  0  0  0  0  0  0  0  0  0  0  0
   10.7810   45.2150   50.7670 N   0  0  0  0  0  0  0  0  0  0  0  0
    4.2080   45.3110   54.9810 C   0  0  0  0  0  0  0  0  0  0  0  0
    4.0460   40.6250   48.6330 C   0  0  0  0  0  0  0  0  0  0  0  0
    9.4440   44.8520   50.4500 C   0  0  0  0  0  0  0  0  0  0  0  0
    7.6150   42.7580   48.4900 N   0  0  0  0  0  0  0  0  0  0  0  0
    3.1910   45.7330   54.1720 C   0  0  0  0  0  0  0  0  0  0  0  0
    8.1640   46.3090   52.2360 C   0  0  0  0  0  0  0  0  0  0  0  0
    9.0260   47.1380   52.2990 O   0  0  0  0  0  0  0  0  0  0  0  0
    4.6330   41.1210   49.7920 C   0  0  0  0  0  0  0  0  0  0  0  0
    6.9660   44.5830   50.4430 S   0  0  0  0  0  0  0  0  0  0  0  0
    7.1380   46.2950   52.9970 N   0  0  0  0  0  0  0  0  0  0  0  0
    4.9190   46.3410   52.4260 C   0  0  0  0  0  0  0  0  0  0  0  0
    9.0910   43.9510   49.5770 N   0  0  0  0  0  0  0  0  0  0  0  0
    4.6890   40.9620   47.3720 C   0  0  0  0  0  0  0  0  0  0  0  0
    3.5170   46.3610   52.9900 C   0  0  0  0  0  0  0  0  0  0  0  0
    7.8670   43.7240   49.4310 C   0  0  0  0  0  0  0  0  0  0  0  0
    5.5840   45.4450   54.5960 C   0  0  0  0  0  0  0  0  0  0  0  0
    6.4310   42.0920   48.6310 C   0  0  0  0  0  0  0  0  0  0  0  0
  1 22  4  0
  4 23  4  0
  5 12  1  0
  8 14  4  0
  9  6  1  0
  9  5  4  0
 10 23  1  0
 10 21  1  0
 11  3  1  0
 11  7  4  0
 12 13  2  0
 12 16  1  0
 14  2  4  0
 15  5  4  0
 16  1  1  0
 17 20  4  0
 17  1  4  0
 18  9  4  0
 19  4  4  0
 19  8  4  0
 20 11  4  0
 21 18  4  0
 21 15  4  0
 22  7  4  0
 23  2  4  0
M  END
$$$$

     RDKit          3D

 27 30  0  0  0  0  0  0  0  0999 V2000
    8.0560   43.6160   49.2620 C   0  0  0  0  0  0  0  0  0  0  0  0
    3.5190   45.8010   54.0680 C   0  0  0  0  0  0  0  0  0  0  0  0
    4.0200   40.6630   48.6480 C   0  0  0  0  0  0  0  0  0  0  0  0
    1.7590   45.6950   51.9840 C   0  0  0  0  0  0  0  0  0  0  0  0
    1.2670   45.4550   53.2050 C   0  0  0  0  0  0  0  0  0  0  0  0
    7.8740   46.1920   51.7680 N   0  0  0  0  0  0  0  0  0  0  0  0
    5.8420   41.6410   47.4090 C   0  0  0  0  0  0  0  0  0  0  0  0
    9.3180   47.4010   53.5190 Cl  0  0  0  0  0  0  0  0  0  0  0  0
    4.6620   40.8820   47.4080 C   0  0  0  0  0  0  0  0  0  0  0  0
    8.4080   45.8230   50.7520 C   0  0  0  0  0  0  0  0  0  0  0  0
    5.4610   46.0430   52.5640 C   0  0  0  0  0  0  0  0  0  0  0  0
    9.4400   45.0320   50.3410 C   0  0  0  0  0  0  0  0  0  0  0  0
    7.6280   42.7900   48.5210 N   0  0  0  0  0  0  0  0  0  0  0  0
    6.2210   42.3620   50.9420 F   0  0  0  0  0  0  0  0  0  0  0  0
    5.8280   45.6860   51.3090 N   0  0  0  0  0  0  0  0  0  0  0  0
    5.8050   41.8560   49.8060 C   0  0  0  0  0  0  0  0  0  0  0  0
    6.4910   46.5800   53.4460 C   0  0  0  0  0  0  0  0  0  0  0  0
    2.1390   45.5390   54.2820 C   0  0  0  0  0  0  0  0  0  0  0  0
    3.1190   45.9530   51.7460 C   0  0  0  0  0  0  0  0  0  0  0  0
    6.4420   42.1140   48.5690 C   0  0  0  0  0  0  0  0  0  0  0  0
    7.1320   45.6970   50.9640 C   0  0  0  0  0  0  0  0  0  0  0  0
    4.6430   41.0580   49.8220 C   0  0  0  0  0  0  0  0  0  0  0  0
    4.2790   45.8800   55.1680 F   0  0  0  0  0  0  0  0  0  0  0  0
   10.7420   45.2860   50.7500 N   0  0  0  0  0  0  0  0  0  0  0  0
    9.0620   43.9390   49.5560 N   0  0  0  0  0  0  0  0  0  0  0  0
    7.7890   46.7420   52.9180 C   0  0  0  0  0  0  0  0  0  0  0  0
    4.0480   45.9600   52.7410 C   0  0  0  0  0  0  0  0  0  0  0  0
  1 25  2  3
  2 18  4  0
  2 23  1  0
  3 22  4  0
  4  5  4  0
  5 18  4  0
  6 26  1  0
  7 20  4  0
  9  7  4  0
  9  3  4  0
 10 12  1  0
 10 21  1  0
 10  6  1  0
 11 27  1  0
 11 17  1  0
 12 24  2  0
 13 20  1  0
 13  1  1  0
 15 11  2  0
 16 22  4  0
 16 14  1  0
 19  4  4  0
 19 27  4  0
 20 16  4  0
 21 15  1  0
 21  6  1  0
 25 12  1  0
 26 17  2  0
 26  8  1  0
 27  2  4  0
M  END
$$$$

     RDKit          3D

 23 25  0  0  0  0  0  0  0  0999 V2000
    3.2440   46.2010   54.2400 C   0  0  0  0  0  0  0  0  0  0  0  0
    4.6250   40.8770   47.4070 C   0  0  0  0  0  0  0  0  0  0  0  0
    9.1200   43.9990   49.5800 N   0  0  0  0  0  0  0  0  0  0  0  0
    4.2320   45.2630   54.9120 C   0  0  0  0  0  0  0  0  0  0  0  0
    5.8300   41.8330   49.8090 C   0  0  0  0  0  0  0  0  0  0  0  0
    7.9500   45.1800   50.6250 N   0  0  0  0  0  0  0  0  0  0  0  0
    8.1020   43.3040   49.3350 C   0  0  0  0  0  0  0  0  0  0  0  0
    4.6400   41.1100   49.7880 C   0  0  0  0  0  0  0  0  0  0  0  0
    9.4950   45.8300   51.3240 C   0  0  0  0  0  0  0  0  0  0  0  0
    6.9540   45.4500   51.2010 C   0  0  0  0  0  0  0  0  0  0  0  0
    6.8620   46.1460   52.3360 C   0  0  0  0  0  0  0  0  0  0  0  0
    4.6720   46.8800   52.4060 C   0  0  0  0  0  0  0  0  0  0  0  0
    8.1600   46.9020   52.8150 C   0  0  0  0  0  0  0  0  0  0  0  0
    5.7050   46.1940   52.9290 N   0  0  0  0  0  0  0  0  0  0  0  0
    5.5330   45.1940   54.1040 C   0  0  0  0  0  0  0  0  0  0  0  0
    9.1270   45.0160   50.5190 C   0  0  0  0  0  0  0  0  0  0  0  0
    7.5500   42.7580   48.4820 N   0  0  0  0  0  0  0  0  0  0  0  0
    9.3550   46.5660   52.2670 N   0  0  0  0  0  0  0  0  0  0  0  0
    3.5100   47.2210   53.2690 C   0  0  0  0  0  0  0  0  0  0  0  0
    4.0220   40.6670   48.6440 C   0  0  0  0  0  0  0  0  0  0  0  0
    5.8350   41.6460   47.3740 C   0  0  0  0  0  0  0  0  0  0  0  0
    6.3820   42.1040   48.5310 C   0  0  0  0  0  0  0  0  0  0  0  0
   10.8000   45.2950   50.7240 N   0  0  0  0  0  0  0  0  0  0  0  0
  1  4  1  0
  2 20  4  0
  3 16  1  0
  6 10  1  0
  7  3  1  0
  8  5  4  0
  9 18  2  0
 10 11  2  0
 11 13  1  0
 11 14  1  0
 12 14  1  0
 12 19  1  0
 14 15  1  0
 15  4  1  0
 16  6  2  0
 16  9  1  0
 17 22  1  0
 17  7  2  3
 18 13  1  0
 19  1  1  0
 20  8  4  0
 21  2  4  0
 21 22  4  0
 22  5  4  0
 23  9  1  0
M  END
$$$$

     RDKit          3D

 27 31  0  0  0  0  0  0  0  0999 V2000
    5.2020   46.2240   54.1360 C   0  0  0  0  0  0  0  0  0  0  0  0
    9.4460   44.9460   50.4870 C   0  0  0  0  0  0  0  0  0  0  0  0
    4.6600   41.0940   49.8370 C   0  0  0  0  0  0  0  0  0  0  0  0
    4.4680   44.9340   54.5080 C   0  0  0  0  0  0  0  0  0  0  0  0
    9.4340   47.3840   52.4080 O   0  0  0  0  0  0  0  0  0  0  0  0
    6.4850   42.0930   48.5400 C   0  0  0  0  0  0  0  0  0  0  0  0
    1.7780   44.2030   51.9090 C   0  0  0  0  0  0  0  0  0  0  0  0
    7.7790   43.7360   49.3930 C   0  0  0  0  0  0  0  0  0  0  0  0
    2.7300   45.2240   51.2690 C   0  0  0  0  0  0  0  0  0  0  0  0
    4.1220   47.3240   52.1980 O   0  0  0  0  0  0  0  0  0  0  0  0
    6.6690   44.5040   50.0540 C   0  0  0  0  0  0  0  0  0  0  0  0
    9.0690   43.9340   49.5780 N   0  0  0  0  0  0  0  0  0  0  0  0
    6.1680   46.3870   51.7670 C   0  0  0  0  0  0  0  0  0  0  0  0
    4.7070   40.9120   47.4220 C   0  0  0  0  0  0  0  0  0  0  0  0
    4.8580   46.4030   52.5900 C   0  0  0  0  0  0  0  0  0  0  0  0
    8.3520   45.6930   51.1040 C   0  0  0  0  0  0  0  0  0  0  0  0
    6.9900   45.4820   50.9630 N   0  0  0  0  0  0  0  0  0  0  0  0
    4.0670   40.6840   48.6190 C   0  0  0  0  0  0  0  0  0  0  0  0
    8.4320   46.7840   52.1370 C   0  0  0  0  0  0  0  0  0  0  0  0
    7.1550   47.0630   52.5120 N   0  0  0  0  0  0  0  0  0  0  0  0
    5.8960   41.7890   49.8010 C   0  0  0  0  0  0  0  0  0  0  0  0
    3.7380   45.4970   52.3400 C   0  0  0  0  0  0  0  0  0  0  0  0
    2.3940   43.8360   53.2450 C   0  0  0  0  0  0  0  0  0  0  0  0
    5.8410   41.6480   47.3930 C   0  0  0  0  0  0  0  0  0  0  0  0
    7.5920   42.7800   48.5580 N   0  0  0  0  0  0  0  0  0  0  0  0
   10.7750   45.2190   50.7330 N   0  0  0  0  0  0  0  0  0  0  0  0
    3.4830   44.6880   53.4350 C   0  0  0  0  0  0  0  0  0  0  0  0
  1  4  1  0
  2 26  1  0
  2 16  2  0
  6 25  1  0
  6 21  4  0
  7 23  1  0
  8 12  2  0
  8 11  1  0
  9  7  2  0
  9 22  1  0
 11 17  1  0
 12  2  1  0
 13 20  2  0
 13 15  1  0
 14 18  4  0
 15 10  1  0
 15  1  1  0
 16 19  1  0
 17 16  1  0
 17 13  1  0
 18  3  4  0
 19  5  2  0
 19 20  1  0
 21  3  4  0
 22 15  1  0
 22 27  2  0
 23 27  1  0
 24 14  4  0
 24  6  4  0
 25  8  1  0
 27  4  1  0
M  END
$$$$

     RDKit          3D

 36 38  0  0  0  0  0  0  0  0999 V2000
    4.0690   44.2520   51.2050 C   0  0  0  0  0  0  0  0  0  0  0  0
    3.1990   45.3340   51.6790 C   0  0  0  0  0  0  0  0  0  0  0  0
    7.8360   43.7710   49.3500 C   0  0  0  0  0  0  0  0  0  0  0  0
    5.8020   41.7260   49.8010 C   0  0  0  0  0  0  0  0  0  0  0  0
    6.8270   47.3370   53.7020 C   0  0  0  0  0  0  0  0  0  0  0  0
    2.3850   44.5990   52.8280 N   0  0  0  0  0  0  0  0  0  0  0  0
    7.0290   44.9830   50.2340 S   0  0  0  0  0  0  0  0  0  0  0  0
    9.6170   46.2120   54.5260 F   0  0  0  0  0  0  0  0  0  0  0  0
    4.6590   40.9450   47.3810 C   0  0  0  0  0  0  0  0  0  0  0  0
    8.5500   46.2930   52.1950 N   0  0  0  0  0  0  0  0  0  0  0  0
    2.9500   46.7900   52.1540 C   0  0  0  0  0  0  0  0  0  0  0  0
    1.3030   45.8370   54.7190 O   0  0  0  0  0  0  0  0  0  0  0  0
    0.7660   45.0290   55.6710 C   0  0  0  0  0  0  0  0  0  0  0  0
    4.6200   41.0190   49.8050 C   0  0  0  0  0  0  0  0  0  0  0  0
    2.7260   39.9990   48.5960 C   0  0  0  0  0  0  0  0  0  0  0  0
    3.1780   43.1210   51.7020 O   0  0  0  0  0  0  0  0  0  0  0  0
    3.3110   46.3870   53.9780 N   0  0  0  0  0  0  0  0  0  0  0  0
   10.2070   47.5600   53.3880 F   0  0  0  0  0  0  0  0  0  0  0  0
    5.9130   46.5000   54.2220 C   0  0  0  0  0  0  0  0  0  0  0  0
    1.3640   42.9920   53.7200 C   0  0  0  0  0  0  0  0  0  0  0  0
    2.6780   39.3130   47.3880 O   0  0  0  0  0  0  0  0  0  0  0  0
    7.5760   42.7840   48.4910 N   0  0  0  0  0  0  0  0  0  0  0  0
    8.1180   47.0950   53.2690 C   0  0  0  0  0  0  0  0  0  0  0  0
    2.6750   43.2910   53.0890 C   0  0  0  0  0  0  0  0  0  0  0  0
    2.3360   45.6200   53.8490 C   0  0  0  0  0  0  0  0  0  0  0  0
    8.8590   48.0610   54.6990 F   0  0  0  0  0  0  0  0  0  0  0  0
    6.5020   42.0450   48.5770 C   0  0  0  0  0  0  0  0  0  0  0  0
    8.4230   45.5530   51.1590 C   0  0  0  0  0  0  0  0  0  0  0  0
    5.8460   41.6670   47.4140 C   0  0  0  0  0  0  0  0  0  0  0  0
    9.0980   43.9260   49.6160 N   0  0  0  0  0  0  0  0  0  0  0  0
    4.0310   40.6670   48.5960 C   0  0  0  0  0  0  0  0  0  0  0  0
    5.5520   45.4760   54.7410 O   0  0  0  0  0  0  0  0  0  0  0  0
    9.3040   47.2620   54.0030 C   0  0  0  0  0  0  0  0  0  0  0  0
    3.6080   47.4520   53.7230 C   0  0  0  0  0  0  0  0  0  0  0  0
   10.7800   45.2120   50.7580 N   0  0  0  0  0  0  0  0  0  0  0  0
    9.4860   44.8560   50.4800 C   0  0  0  0  0  0  0  0  0  0  0  0
  1 16  1  0
  2  1  1  0
  2 11  1  0
  2  6  1  0
  3 30  4  0
  3  7  4  0
  4 14  4  0
  5 19  1  0
  6 24  1  0
  6 25  1  0
  7 28  4  0
  9 29  4  0
  9 31  4  0
 10 23  1  0
 11 34  1  0
 12 13  1  0
 16 24  1  0
 18 33  1  0
 19 32  2  0
 21 15  1  0
 22 27  1  0
 22  3  1  0
 23  5  1  0
 23 33  1  0
 24 20  1  0
 25 17  2  0
 25 12  1  0
 27  4  4  0
 28 10  1  0
 29 27  4  0
 30 36  4  0
 31 15  1  0
 31 14  4  0
 33  8  1  0
 33 26  1  0
 34 17  1  0
 36 35  1  0
 36 28  4  0
M  END
$$$$

     RDKit          3D

 28 31  0  0  0  0  0  0  0  0999 V2000
    3.8580   45.3190   53.8650 C   0  0  0  0  0  0  0  0  0  0  0  0
    5.7560   46.5050   53.1660 C   0  0  0  0  0  0  0  0  0  0  0  0
    9.0610   43.9750   49.6100 N   0  0  0  0  0  0  0  0  0  0  0  0
    4.4830   45.9790   52.7670 C   0  0  0  0  0  0  0  0  0  0  0  0
    6.4680   42.0760   48.6050 C   0  0  0  0  0  0  0  0  0  0  0  0
    6.0000   46.1450   54.5070 C   0  0  0  0  0  0  0  0  0  0  0  0
    2.3750   45.6150   51.4470 C   0  0  0  0  0  0  0  0  0  0  0  0
    5.8820   41.6460   47.4040 C   0  0  0  0  0  0  0  0  0  0  0  0
    7.0290   45.1000   50.4210 S   0  0  0  0  0  0  0  0  0  0  0  0
    2.3560   44.2230   51.2640 O   0  0  0  0  0  0  0  0  0  0  0  0
    2.4140   45.0400   53.9220 C   0  0  0  0  0  0  0  0  0  0  0  0
    7.5960   42.8080   48.5240 N   0  0  0  0  0  0  0  0  0  0  0  0
    5.8810   41.8250   49.8060 C   0  0  0  0  0  0  0  0  0  0  0  0
    8.7780   46.4420   52.3160 N   0  0  0  0  0  0  0  0  0  0  0  0
    7.0720   46.6380   55.1000 N   0  0  0  0  0  0  0  0  0  0  0  0
    4.0610   40.6540   48.6600 C   0  0  0  0  0  0  0  0  0  0  0  0
    8.4880   45.5750   51.2230 C   0  0  0  0  0  0  0  0  0  0  0  0
    4.8860   45.2030   54.9650 C   0  0  0  0  0  0  0  0  0  0  0  0
    4.6870   41.1320   49.8180 C   0  0  0  0  0  0  0  0  0  0  0  0
    7.9420   43.7890   49.3570 C   0  0  0  0  0  0  0  0  0  0  0  0
    4.6760   40.9010   47.4280 C   0  0  0  0  0  0  0  0  0  0  0  0
   10.8160   45.1670   50.8020 N   0  0  0  0  0  0  0  0  0  0  0  0
    3.8870   46.0330   51.3970 C   0  0  0  0  0  0  0  0  0  0  0  0
   10.0090   47.0660   52.7230 C   0  0  0  0  0  0  0  0  0  0  0  0
    6.7000   47.2150   52.7380 N   0  0  0  0  0  0  0  0  0  0  0  0
    7.7950   46.9420   53.2010 C   0  0  0  0  0  0  0  0  0  0  0  0
    9.4650   44.9220   50.5300 C   0  0  0  0  0  0  0  0  0  0  0  0
    1.8310   45.9360   52.8270 C   0  0  0  0  0  0  0  0  0  0  0  0
  1 11  1  0
  1 18  1  0
  2  6  2  0
  3 27  4  0
  4 23  1  0
  4  2  1  0
  4  1  1  0
  5 13  4  0
  6 18  1  0
  6 15  1  0
  7 10  1  0
  7 28  1  0
  8 21  4  0
  8  5  4  0
  9 17  4  0
 12  5  1  0
 12 20  1  0
 13 19  4  0
 14 24  1  0
 14 26  1  0
 16 19  4  0
 17 14  1  0
 20  3  4  0
 20  9  4  0
 21 16  4  0
 23  7  1  0
 25  2  1  0
 25 26  1  0
 27 22  1  0
 27 17  4  0
 28 11  1  0
M  END
$$$$

     RDKit          3D

 23 25  0  0  0  0  0  0  0  0999 V2000
    7.1230   46.7590   53.4330 C   0  0  0  0  0  0  0  0  0  0  0  0
    8.7250   45.7200   51.3700 N   0  0  0  0  0  0  0  0  0  0  0  0
    4.6960   40.8950   47.4230 C   0  0  0  0  0  0  0  0  0  0  0  0
    6.5990   46.4200   52.2630 C   0  0  0  0  0  0  0  0  0  0  0  0
    8.2300   47.3750   54.1390 C   0  0  0  0  0  0  0  0  0  0  0  0
    5.8810   46.8550   53.7930 N   0  0  0  0  0  0  0  0  0  0  0  0
    7.5980   42.7470   48.5360 N   0  0  0  0  0  0  0  0  0  0  0  0
   10.7980   45.1220   50.7260 N   0  0  0  0  0  0  0  0  0  0  0  0
    9.6980   47.4180   53.6960 S   0  0  0  0  0  0  0  0  0  0  0  0
    5.8490   41.6610   47.3720 C   0  0  0  0  0  0  0  0  0  0  0  0
    7.8700   43.7820   49.3880 C   0  0  0  0  0  0  0  0  0  0  0  0
    5.8400   41.7970   49.8080 C   0  0  0  0  0  0  0  0  0  0  0  0
    7.3470   45.6370   51.3050 C   0  0  0  0  0  0  0  0  0  0  0  0
    9.1460   43.9550   49.6450 N   0  0  0  0  0  0  0  0  0  0  0  0
    2.7710   39.9240   48.6200 C   0  0  0  0  0  0  0  0  0  0  0  0
    4.3680   45.0130   54.2730 C   0  0  0  0  0  0  0  0  0  0  0  0
    3.5340   44.1950   53.2380 C   0  0  0  0  0  0  0  0  0  0  0  0
    6.3900   42.0620   48.6200 C   0  0  0  0  0  0  0  0  0  0  0  0
    6.6110   44.7210   50.1520 S   0  0  0  0  0  0  0  0  0  0  0  0
    4.7480   46.4070   53.5950 N   0  0  0  0  0  0  0  0  0  0  0  0
    9.4840   44.9000   50.5660 C   0  0  0  0  0  0  0  0  0  0  0  0
    4.0560   40.6240   48.6160 C   0  0  0  0  0  0  0  0  0  0  0  0
    4.6180   41.0650   49.7820 C   0  0  0  0  0  0  0  0  0  0  0  0
  1  6  1  0
  1  5  1  0
  3 22  4  0
  4  1  1  0
  4  6  1  0
  7 18  1  0
  7 11  1  0
  9  5  2  0
 10  3  4  0
 10 18  4  0
 11 14  2  0
 11 19  1  0
 13 19  1  0
 13  2  1  0
 13  4  1  0
 14 21  1  0
 17 16  1  0
 18 12  4  0
 20  6  1  0
 20 16  1  0
 21  8  1  0
 21  2  2  0
 22 15  1  0
 22 23  4  0
 23 12  4  0
M  END
$$$$

     RDKit          3D

 27 30  0  0  0  0  0  0  0  0999 V2000
    9.1190   43.9100   49.6230 N   0  0  0  0  0  0  0  0  0  0  0  0
    2.1020   45.3710   54.8060 C   0  0  0  0  0  0  0  0  0  0  0  0
    7.3150   45.7770   51.4390 C   0  0  0  0  0  0  0  0  0  0  0  0
    5.8590   41.6800   47.3900 C   0  0  0  0  0  0  0  0  0  0  0  0
   10.0000   47.4010   53.3820 S   0  0  0  0  0  0  0  0  0  0  0  0
    5.4600   46.4510   52.6930 N   0  0  0  0  0  0  0  0  0  0  0  0
    4.6780   41.0580   49.8200 C   0  0  0  0  0  0  0  0  0  0  0  0
    3.3600   44.9620   55.3010 C   0  0  0  0  0  0  0  0  0  0  0  0
    8.6240   46.6840   52.7210 C   0  0  0  0  0  0  0  0  0  0  0  0
    7.6000   42.7490   48.5390 N   0  0  0  0  0  0  0  0  0  0  0  0
    6.4520   42.0770   48.6270 C   0  0  0  0  0  0  0  0  0  0  0  0
    4.6800   40.9040   47.4380 C   0  0  0  0  0  0  0  0  0  0  0  0
    3.3780   46.3940   52.9820 C   0  0  0  0  0  0  0  0  0  0  0  0
    5.8340   41.7780   49.7820 C   0  0  0  0  0  0  0  0  0  0  0  0
   10.8060   45.1590   50.7200 N   0  0  0  0  0  0  0  0  0  0  0  0
    9.4210   44.9540   50.6300 C   0  0  0  0  0  0  0  0  0  0  0  0
    3.4720   47.1270   51.9460 C   0  0  0  0  0  0  0  0  0  0  0  0
    4.5670   45.3070   54.5930 C   0  0  0  0  0  0  0  0  0  0  0  0
    7.8080   43.7420   49.4190 C   0  0  0  0  0  0  0  0  0  0  0  0
    4.6110   46.0070   53.4250 C   0  0  0  0  0  0  0  0  0  0  0  0
    4.0420   40.6370   48.6380 C   0  0  0  0  0  0  0  0  0  0  0  0
    6.6480   44.6930   50.2370 S   0  0  0  0  0  0  0  0  0  0  0  0
    2.1730   46.0640   53.5920 C   0  0  0  0  0  0  0  0  0  0  0  0
    7.4690   46.7410   53.3850 N   0  0  0  0  0  0  0  0  0  0  0  0
    3.3370   46.1500   50.5700 Cl  0  0  0  0  0  0  0  0  0  0  0  0
    8.6010   45.8280   51.5580 C   0  0  0  0  0  0  0  0  0  0  0  0
    6.6820   46.3030   52.5750 C   0  0  0  0  0  0  0  0  0  0  0  0
  1 16  1  0
  2  8  4  0
  3 26  2  0
  3 27  1  0
  4 12  4  0
  4 11  4  0
  6 20  1  0
  9  5  2  0
  9 24  1  0
 10 11  1  0
 10 19  1  0
 11 14  4  0
 12 21  4  0
 13 20  4  0
 13 23  4  0
 14  7  4  0
 16 15  1  0
 16 26  1  0
 17 13  1  0
 18  8  4  0
 19  1  2  0
 19 22  1  0
 20 18  4  0
 21  7  4  0
 22  3  1  0
 23  2  4  0
 25 17  1  0
 26  9  1  0
 27  6  1  0
 27 24  2  0
M  END
$$$$

     RDKit          3D

 36 40  0  0  0  0  0  0  0  0999 V2000
    3.7230   47.8940   53.5450 O   0  0  0  0  0  0  0  0  0  0  0  0
    9.5060   44.8790   50.6380 C   0  0  0  0  0  0  0  0  0  0  0  0
    1.0010   44.8170   51.3850 C   0  0  0  0  0  0  0  0  0  0  0  0
    4.9200   45.7330   53.6510 C   0  0  0  0  0  0  0  0  0  0  0  0
    2.0650   43.1250   52.1190 C   0  0  0  0  0  0  0  0  0  0  0  0
    8.3540   47.6100   55.1050 C   0  0  0  0  0  0  0  0  0  0  0  0
    8.4890   47.5580   54.3430 C   0  0  0  0  0  0  0  0  0  0  0  0
    2.8570   43.9420   52.8620 C   0  0  0  0  0  0  0  0  0  0  0  0
    7.6340   42.7810   48.4900 N   0  0  0  0  0  0  0  0  0  0  0  0
    9.2390   46.5850   52.2430 N   0  0  0  0  0  0  0  0  0  0  0  0
    4.6120   41.1090   49.8070 C   0  0  0  0  0  0  0  0  0  0  0  0
    7.6100   45.3510   51.1990 C   0  0  0  0  0  0  0  0  0  0  0  0
   10.8100   45.1690   50.7500 N   0  0  0  0  0  0  0  0  0  0  0  0
    1.6600   45.8130   52.1590 C   0  0  0  0  0  0  0  0  0  0  0  0
    6.6820   44.5340   50.0880 S   0  0  0  0  0  0  0  0  0  0  0  0
    8.8140   45.7420   51.4290 C   0  0  0  0  0  0  0  0  0  0  0  0
    3.5540   40.6320   45.1920 N   0  0  0  0  0  0  0  0  0  0  0  0
    2.5670   45.3550   53.1480 N   0  0  0  0  0  0  0  0  0  0  0  0
    4.0610   40.6900   48.6120 C   0  0  0  0  0  0  0  0  0  0  0  0
    4.2210   48.5530   53.8990 C   0  0  0  0  0  0  0  0  0  0  0  0
    4.5620   45.1470   55.0460 C   0  0  0  0  0  0  0  0  0  0  0  0
    8.4570   47.1250   53.0600 C   0  0  0  0  0  0  0  0  0  0  0  0
    5.8090   41.7740   49.7830 C   0  0  0  0  0  0  0  0  0  0  0  0
    9.0600   43.9470   49.6090 N   0  0  0  0  0  0  0  0  0  0  0  0
    6.4410   42.0860   48.5860 C   0  0  0  0  0  0  0  0  0  0  0  0
    1.8410   43.8810   50.9360 O   0  0  0  0  0  0  0  0  0  0  0  0
    4.7420   40.9300   47.3960 C   0  0  0  0  0  0  0  0  0  0  0  0
    7.3720   46.5770   52.7820 C   0  0  0  0  0  0  0  0  0  0  0  0
    7.0360   47.4530   54.8860 N   0  0  0  0  0  0  0  0  0  0  0  0
    4.1340   40.6590   46.1010 C   0  0  0  0  0  0  0  0  0  0  0  0
    5.8250   41.6120   47.4020 C   0  0  0  0  0  0  0  0  0  0  0  0
    7.8680   43.7230   49.3820 C   0  0  0  0  0  0  0  0  0  0  0  0
    3.2790   45.7310   55.8440 C   0  0  0  0  0  0  0  0  0  0  0  0
    6.6680   46.7670   53.7960 N   0  0  0  0  0  0  0  0  0  0  0  0
    3.7040   46.3870   53.1120 C   0  0  0  0  0  0  0  0  0  0  0  0
    6.1150   46.0970   52.7880 C   0  0  0  0  0  0  0  0  0  0  0  0
  1 20  1  0
  2 13  1  0
  2 16  1  0
  3 14  1  0
  4 21  1  0
  5  8  1  0
  7  6  1  0
  8 18  1  0
  9 25  1  0
  9 32  1  0
 12 16  1  0
 14 18  1  0
 15 12  1  0
 16 10  2  3
 17 30  3  0
 19 11  4  0
 21 33  1  0
 22 10  1  0
 22  7  1  0
 23 11  4  0
 24  2  1  0
 25 23  4  0
 26  3  1  0
 26  5  1  0
 27 31  4  0
 27 19  4  0
 28 36  1  0
 28 22  1  0
 28 34  1  0
 29  6  1  0
 30 27  1  0
 31 25  4  0
 32 24  2  0
 32 15  1  0
 34 29  1  0
 35 18  1  0
 35  1  1  0
 35  4  1  0
 36  4  1  0
 36 34  1  0
M  END
$$$$

     RDKit          3D

 18 19  0  0  0  0  0  0  0  0999 V2000
    4.7780   45.7550   51.2400 C   0  0  0  0  0  0  0  0  0  0  0  0
    4.6420   41.1310   49.7820 C   0  0  0  0  0  0  0  0  0  0  0  0
    4.6110   40.9170   47.3840 C   0  0  0  0  0  0  0  0  0  0  0  0
    4.0770   40.6350   48.6200 C   0  0  0  0  0  0  0  0  0  0  0  0
    8.1170   47.3710   52.7820 C   0  0  0  0  0  0  0  0  0  0  0  0
    5.8640   41.7970   49.8050 C   0  0  0  0  0  0  0  0  0  0  0  0
    6.9270   46.8540   52.3680 N   0  0  0  0  0  0  0  0  0  0  0  0
    9.4580   44.9340   50.4670 C   0  0  0  0  0  0  0  0  0  0  0  0
    7.1220   45.9870   51.3820 C   0  0  0  0  0  0  0  0  0  0  0  0
    8.5160   45.8510   51.2250 C   0  0  0  0  0  0  0  0  0  0  0  0
    7.9060   43.8390   49.1470 C   0  0  0  0  0  0  0  0  0  0  0  0
    9.0890   43.9480   49.5740 N   0  0  0  0  0  0  0  0  0  0  0  0
    6.1260   45.3440   50.7540 N   0  0  0  0  0  0  0  0  0  0  0  0
    7.5840   42.7900   48.5250 N   0  0  0  0  0  0  0  0  0  0  0  0
   10.7710   45.1600   50.7530 N   0  0  0  0  0  0  0  0  0  0  0  0
    9.0700   46.7790   52.1160 N   0  0  0  0  0  0  0  0  0  0  0  0
    5.8290   41.6230   47.3520 C   0  0  0  0  0  0  0  0  0  0  0  0
    6.4180   42.0450   48.6080 C   0  0  0  0  0  0  0  0  0  0  0  0
  2  6  4  0
  3  4  4  0
  4  2  4  0
  7  5  1  0
  8 15  2  0
  9  7  2  0
 10  8  1  0
 10  9  1  0
 10 16  1  0
 11 12  2  3
 12  8  1  0
 13  1  1  0
 13  9  1  0
 14 18  1  0
 14 11  1  0
 16  5  2  0
 17  3  4  0
 17 18  4  0
 18  6  4  0
M  END
$$$$

     RDKit          3D

 28 31  0  0  0  0  0  0  0  0999 V2000
    8.1480   45.1650   50.9540 N   0  0  0  0  0  0  0  0  0  0  0  0
    8.3800   47.1660   53.9190 C   0  0  0  0  0  0  0  0  0  0  0  0
    6.3900   42.0760   48.6240 C   0  0  0  0  0  0  0  0  0  0  0  0
    8.8680   46.5130   52.6990 C   0  0  0  0  0  0  0  0  0  0  0  0
    5.7400   41.7840   49.7980 C   0  0  0  0  0  0  0  0  0  0  0  0
    0.8280   44.5740   54.4910 Cl  0  0  0  0  0  0  0  0  0  0  0  0
    1.7310   45.8670   52.1960 C   0  0  0  0  0  0  0  0  0  0  0  0
    6.7000   46.1420   53.1930 C   0  0  0  0  0  0  0  0  0  0  0  0
    7.5850   42.7670   48.5460 N   0  0  0  0  0  0  0  0  0  0  0  0
    7.1620   46.9130   54.0860 N   0  0  0  0  0  0  0  0  0  0  0  0
    9.1680   47.9650   54.8800 C   0  0  0  0  0  0  0  0  0  0  0  0
    7.6860   45.8370   52.2120 C   0  0  0  0  0  0  0  0  0  0  0  0
    4.3330   45.6320   53.0010 C   0  0  0  0  0  0  0  0  0  0  0  0
    4.6720   40.9110   47.4150 C   0  0  0  0  0  0  0  0  0  0  0  0
    9.0420   43.9560   49.5100 N   0  0  0  0  0  0  0  0  0  0  0  0
   10.2370   47.0590   55.3660 N   0  0  0  0  0  0  0  0  0  0  0  0
    4.0280   40.6130   48.6050 C   0  0  0  0  0  0  0  0  0  0  0  0
    4.0250   46.2150   51.8070 C   0  0  0  0  0  0  0  0  0  0  0  0
    7.1080   44.6120   50.2540 C   0  0  0  0  0  0  0  0  0  0  0  0
    5.5110   45.7820   53.6170 N   0  0  0  0  0  0  0  0  0  0  0  0
    4.6000   41.1080   49.8170 C   0  0  0  0  0  0  0  0  0  0  0  0
    3.3900   45.0460   53.8070 C   0  0  0  0  0  0  0  0  0  0  0  0
    2.0250   45.1880   53.3660 C   0  0  0  0  0  0  0  0  0  0  0  0
   10.7900   45.1420   50.7060 N   0  0  0  0  0  0  0  0  0  0  0  0
    9.4050   44.8210   50.4230 C   0  0  0  0  0  0  0  0  0  0  0  0
    5.8940   41.6450   47.4360 C   0  0  0  0  0  0  0  0  0  0  0  0
    7.8380   43.7580   49.4140 C   0  0  0  0  0  0  0  0  0  0  0  0
    2.7410   46.2620   51.3850 C   0  0  0  0  0  0  0  0  0  0  0  0
  1 19  1  0
  1 12  1  0
  2 10  1  0
  2 11  1  0
  3  5  4  0
  4  2  2  0
  5 21  4  0
  7 23  4  0
  8 20  1  0
  8 10  2  0
  9  3  1  0
  9 27  1  0
 11 16  1  0
 12  4  1  0
 12  8  1  0
 13 20  1  0
 13 22  4  0
 14 26  4  0
 14 17  4  0
 15 25  1  0
 17 21  4  0
 18 13  4  0
 23 22  4  0
 23  6  1  0
 25 24  1  0
 25  1  1  0
 26  3  4  0
 27 15  2  0
 27 19  1  0
 28 18  4  0
 28  7  4  0
M  END
$$$$

     RDKit          3D

 27 29  0  0  0  0  0  0  0  0999 V2000
    9.3520   47.7310   53.2510 C   0  0  0  0  0  0  0  0  0  0  0  0
    3.2880   46.2500   52.8070 C   0  0  0  0  0  0  0  0  0  0  0  0
    1.3910   45.5330   54.6880 Cl  0  0  0  0  0  0  0  0  0  0  0  0
    5.9620   47.4660   53.8560 N   0  0  0  0  0  0  0  0  0  0  0  0
    9.5990   46.8430   52.2830 N   0  0  0  0  0  0  0  0  0  0  0  0
    4.6870   41.1140   49.7890 C   0  0  0  0  0  0  0  0  0  0  0  0
    7.3030   44.5120   50.0200 N   0  0  0  0  0  0  0  0  0  0  0  0
    5.1410   46.4150   53.8830 C   0  0  0  0  0  0  0  0  0  0  0  0
    4.0610   40.6680   48.6140 C   0  0  0  0  0  0  0  0  0  0  0  0
    7.1560   47.2150   53.1890 C   0  0  0  0  0  0  0  0  0  0  0  0
    3.8160   43.5260   52.2680 C   0  0  0  0  0  0  0  0  0  0  0  0
    2.4250   43.9510   52.5420 C   0  0  0  0  0  0  0  0  0  0  0  0
    2.4000   45.2680   53.3290 C   0  0  0  0  0  0  0  0  0  0  0  0
    7.2920   46.4260   52.1280 C   0  0  0  0  0  0  0  0  0  0  0  0
    5.8730   41.6500   47.4040 C   0  0  0  0  0  0  0  0  0  0  0  0
    9.1040   43.9640   49.6220 N   0  0  0  0  0  0  0  0  0  0  0  0
    8.1470   47.8820   53.8030 N   0  0  0  0  0  0  0  0  0  0  0  0
    7.6420   42.8080   48.5450 N   0  0  0  0  0  0  0  0  0  0  0  0
   10.7810   45.2020   50.7590 N   0  0  0  0  0  0  0  0  0  0  0  0
    5.9170   41.7810   49.8460 C   0  0  0  0  0  0  0  0  0  0  0  0
    6.5190   42.1280   48.5420 C   0  0  0  0  0  0  0  0  0  0  0  0
    4.8280   44.6180   52.1300 C   0  0  0  0  0  0  0  0  0  0  0  0
    4.6740   40.9330   47.3850 C   0  0  0  0  0  0  0  0  0  0  0  0
    9.4880   45.0370   50.5790 C   0  0  0  0  0  0  0  0  0  0  0  0
    8.7110   46.1780   51.6990 C   0  0  0  0  0  0  0  0  0  0  0  0
    4.5200   45.6370   53.0270 N   0  0  0  0  0  0  0  0  0  0  0  0
    7.9140   43.7160   49.3880 C   0  0  0  0  0  0  0  0  0  0  0  0
  1 17  1  0
  2 26  1  0
  2 13  1  0
  4  8  1  0
  5  1  1  0
  6 20  4  0
  9  6  4  0
 10 17  2  0
 10  4  1  0
 11 12  1  0
 12 13  1  0
 13  3  1  0
 14 10  1  0
 15 21  4  0
 16 24  1  0
 18 27  1  0
 21 18  1  0
 21 20  4  0
 22 11  1  0
 22 26  1  0
 23 15  4  0
 23  9  4  0
 24 19  2  0
 24 25  1  0
 25 14  1  0
 25  5  2  0
 26  8  1  0
 27 16  1  0
 27  7  2  0
M  END
$$$$

     RDKit          3D

 27 29  0  0  0  0  0  0  0  0999 V2000
    8.3050   46.9080   51.8020 N   0  0  0  0  0  0  0  0  0  0  0  0
    3.8000   44.3790   54.6600 C   0  0  0  0  0  0  0  0  0  0  0  0
    8.9740   46.9390   52.5780 C   0  0  0  0  0  0  0  0  0  0  0  0
    6.1330   44.8790   54.9130 F   0  0  0  0  0  0  0  0  0  0  0  0
    7.6270   42.7690   48.5230 N   0  0  0  0  0  0  0  0  0  0  0  0
    7.8760   43.7870   49.3660 C   0  0  0  0  0  0  0  0  0  0  0  0
    3.3660   46.5620   53.2940 C   0  0  0  0  0  0  0  0  0  0  0  0
    6.9010   45.0000   50.2680 S   0  0  0  0  0  0  0  0  0  0  0  0
    4.6450   41.0910   49.8440 C   0  0  0  0  0  0  0  0  0  0  0  0
    7.7470   48.0070   52.3400 N   0  0  0  0  0  0  0  0  0  0  0  0
    3.4250   45.4710   55.5140 C   0  0  0  0  0  0  0  0  0  0  0  0
    6.9460   47.9360   53.6450 C   0  0  0  0  0  0  0  0  0  0  0  0
    9.8070   46.5490   53.2940 O   0  0  0  0  0  0  0  0  0  0  0  0
    5.7400   47.1370   53.2740 C   0  0  0  0  0  0  0  0  0  0  0  0
    4.2960   45.3310   53.5930 C   0  0  0  0  0  0  0  0  0  0  0  0
    4.6380   40.8890   47.3850 C   0  0  0  0  0  0  0  0  0  0  0  0
    5.8570   41.8470   49.8110 C   0  0  0  0  0  0  0  0  0  0  0  0
    9.4780   44.9240   50.3980 C   0  0  0  0  0  0  0  0  0  0  0  0
    3.9960   48.9290   53.3960 N   0  0  0  0  0  0  0  0  0  0  0  0
    5.8560   41.6060   47.3880 C   0  0  0  0  0  0  0  0  0  0  0  0
   10.7870   45.2520   50.7410 N   0  0  0  0  0  0  0  0  0  0  0  0
    6.4430   42.0470   48.6040 C   0  0  0  0  0  0  0  0  0  0  0  0
    5.7290   45.7140   53.9100 C   0  0  0  0  0  0  0  0  0  0  0  0
    9.1360   43.9330   49.6100 N   0  0  0  0  0  0  0  0  0  0  0  0
    4.4120   47.6710   53.3940 C   0  0  0  0  0  0  0  0  0  0  0  0
    4.0580   40.6450   48.6450 C   0  0  0  0  0  0  0  0  0  0  0  0
    8.3290   45.6970   50.8910 C   0  0  0  0  0  0  0  0  0  0  0  0
  1 10  1  0
  1  3  1  0
  2 11  1  0
  3 13  1  0
  5 22  1  0
  5  6  1  0
  6 24  4  0
  6  8  4  0
  7 25  1  0
  7 15  1  0
  8 27  4  0
 10 12  1  0
 14 25  1  0
 14 12  1  0
 14 23  1  0
 15 23  1  0
 15  2  1  0
 16 20  4  0
 16 26  4  0
 17  9  4  0
 18 21  1  0
 18 27  4  0
 20 22  4  0
 22 17  4  0
 23  4  1  0
 24 18  4  0
 25 19  2  0
 26  9  4  0
 27  1  1  0
M  END
$$$$

     RDKit          3D

 18 20  0  0  0  0  0  0  0  0999 V2000
    7.8370   43.7600   49.4720 C   0  0  0  0  0  0  0  0  0  0  0  0
    8.8000   45.8750   51.4560 C   0  0  0  0  0  0  0  0  0  0  0  0
    7.6290   42.8100   48.5230 N   0  0  0  0  0  0  0  0  0  0  0  0
   10.7440   45.2000   50.7460 N   0  0  0  0  0  0  0  0  0  0  0  0
    6.6230   44.6780   50.3700 S   0  0  0  0  0  0  0  0  0  0  0  0
    8.6970   47.5150   53.0740 C   0  0  0  0  0  0  0  0  0  0  0  0
    7.3830   47.6310   53.0080 N   0  0  0  0  0  0  0  0  0  0  0  0
    5.8380   41.8520   49.8640 C   0  0  0  0  0  0  0  0  0  0  0  0
    9.4860   44.9380   50.6060 C   0  0  0  0  0  0  0  0  0  0  0  0
    4.5980   41.1370   49.8400 C   0  0  0  0  0  0  0  0  0  0  0  0
    5.8720   41.6430   47.4000 C   0  0  0  0  0  0  0  0  0  0  0  0
    4.6570   40.9370   47.4040 C   0  0  0  0  0  0  0  0  0  0  0  0
    9.0780   43.8450   49.6230 N   0  0  0  0  0  0  0  0  0  0  0  0
    6.7050   46.8530   52.1820 C   0  0  0  0  0  0  0  0  0  0  0  0
    4.0290   40.6450   48.6200 C   0  0  0  0  0  0  0  0  0  0  0  0
    9.4400   46.7190   52.3000 N   0  0  0  0  0  0  0  0  0  0  0  0
    6.4110   42.0810   48.5890 C   0  0  0  0  0  0  0  0  0  0  0  0
    7.4560   45.9370   51.3830 C   0  0  0  0  0  0  0  0  0  0  0  0
  1 13  4  0
  1  5  4  0
  2 16  4  0
  3 17  1  0
  3  1  1  0
  5 18  4  0
  7  6  4  0
  9  4  2  0
  9  2  4  0
 10  8  4  0
 11 12  4  0
 11 17  4  0
 12 15  4  0
 13  9  4  0
 14  7  4  0
 15 10  4  0
 16  6  4  0
 17  8  4  0
 18  2  4  0
 18 14  4  0
M  END
$$$$

     RDKit          3D

 28 31  0  0  0  0  0  0  0  0999 V2000
    7.9400   46.9980   52.7480 C   0  0  0  0  0  0  0  0  0  0  0  0
    7.6400   42.7830   48.5660 N   0  0  0  0  0  0  0  0  0  0  0  0
    1.6780   46.0320   52.4440 C   0  0  0  0  0  0  0  0  0  0  0  0
    4.5400   47.2640   54.0510 C   0  0  0  0  0  0  0  0  0  0  0  0
    6.4360   42.1090   48.5810 C   0  0  0  0  0  0  0  0  0  0  0  0
    5.8810   46.9310   53.3240 C   0  0  0  0  0  0  0  0  0  0  0  0
    9.8260   47.4410   54.1240 C   0  0  0  0  0  0  0  0  0  0  0  0
    5.8380   41.7490   49.7740 C   0  0  0  0  0  0  0  0  0  0  0  0
    6.0240   46.0550   52.3290 N   0  0  0  0  0  0  0  0  0  0  0  0
    4.6510   40.9350   47.3790 C   0  0  0  0  0  0  0  0  0  0  0  0
    3.0860   46.8580   52.2020 C   0  0  0  0  0  0  0  0  0  0  0  0
    7.9210   43.6860   49.3760 C   0  0  0  0  0  0  0  0  0  0  0  0
    9.3080   44.8920   50.3970 C   0  0  0  0  0  0  0  0  0  0  0  0
    3.4480   45.0630   55.4270 C   0  0  0  0  0  0  0  0  0  0  0  0
    3.6050   46.3100   53.4290 N   0  0  0  0  0  0  0  0  0  0  0  0
    7.3270   46.1240   51.8930 C   0  0  0  0  0  0  0  0  0  0  0  0
    4.6300   41.0500   49.7990 C   0  0  0  0  0  0  0  0  0  0  0  0
    7.0670   47.5300   53.6090 N   0  0  0  0  0  0  0  0  0  0  0  0
    4.0450   40.6660   48.6500 C   0  0  0  0  0  0  0  0  0  0  0  0
    5.8510   41.6470   47.3780 C   0  0  0  0  0  0  0  0  0  0  0  0
   10.8130   45.2080   50.7370 N   0  0  0  0  0  0  0  0  0  0  0  0
    5.9110   44.5100   50.3030 C   0  0  0  0  0  0  0  0  0  0  0  0
    9.0820   43.9810   49.5780 N   0  0  0  0  0  0  0  0  0  0  0  0
    8.0960   45.3250   50.9300 C   0  0  0  0  0  0  0  0  0  0  0  0
    9.2800   47.1710   52.6960 N   0  0  0  0  0  0  0  0  0  0  0  0
    2.0610   45.0150   54.8440 C   0  0  0  0  0  0  0  0  0  0  0  0
    2.1850   46.1720   53.8160 C   0  0  0  0  0  0  0  0  0  0  0  0
    7.2910   44.5070   50.2050 N   0  0  0  0  0  0  0  0  0  0  0  0
  1 18  2  0
  2  5  1  0
  2 12  1  0
  3 27  1  0
  5  8  4  0
  6 18  1  0
  6  4  1  0
  8 17  4  0
  9  6  2  0
 10 19  4  0
 11  3  1  0
 11 15  1  0
 12 23  4  0
 12 28  4  0
 13 21  1  0
 13 24  4  0
 15 27  1  0
 15  4  1  0
 16 24  1  0
 16  9  1  0
 16  1  1  0
 19 17  4  0
 20 10  4  0
 20  5  4  0
 23 13  4  0
 25  1  1  0
 25  7  1  0
 26 14  1  0
 27 26  1  0
 28 22  1  0
 28 24  4  0
M  END
$$$$

     RDKit          3D

 23 24  0  0  0  0  0  0  0  0999 V2000
    3.9770   45.0530   53.8100 C   0  0  0  0  0  0  0  0  0  0  0  0
    5.8130   41.7590   49.7960 C   0  0  0  0  0  0  0  0  0  0  0  0
    8.6330   46.4510   52.3090 O   0  0  0  0  0  0  0  0  0  0  0  0
    9.0720   43.9870   49.5420 N   0  0  0  0  0  0  0  0  0  0  0  0
    6.4060   42.0940   48.5860 C   0  0  0  0  0  0  0  0  0  0  0  0
    4.6660   41.1220   49.7950 C   0  0  0  0  0  0  0  0  0  0  0  0
    7.6320   42.7820   48.4500 N   0  0  0  0  0  0  0  0  0  0  0  0
    6.0690   46.2740   53.4280 C   0  0  0  0  0  0  0  0  0  0  0  0
   10.7360   45.2600   50.6990 N   0  0  0  0  0  0  0  0  0  0  0  0
    4.0560   45.6310   51.4820 C   0  0  0  0  0  0  0  0  0  0  0  0
    6.2310   46.2400   52.0870 C   0  0  0  0  0  0  0  0  0  0  0  0
    5.6880   45.2340   55.7990 Cl  0  0  0  0  0  0  0  0  0  0  0  0
    7.9960   45.0560   50.3150 S   0  0  0  0  0  0  0  0  0  0  0  0
    5.1540   45.5690   54.1780 C   0  0  0  0  0  0  0  0  0  0  0  0
    5.3160   46.0010   51.1150 N   0  0  0  0  0  0  0  0  0  0  0  0
    9.6110   44.8130   50.3270 C   0  0  0  0  0  0  0  0  0  0  0  0
    8.0540   47.9020   52.1430 C   0  0  0  0  0  0  0  0  0  0  0  0
    4.0840   40.6480   48.6020 C   0  0  0  0  0  0  0  0  0  0  0  0
    7.6020   45.8560   51.5960 C   0  0  0  0  0  0  0  0  0  0  0  0
    3.4840   45.1490   52.5510 C   0  0  0  0  0  0  0  0  0  0  0  0
    4.6790   40.9370   47.4270 C   0  0  0  0  0  0  0  0  0  0  0  0
    7.9240   43.7460   49.1640 C   0  0  0  0  0  0  0  0  0  0  0  0
    5.8480   41.6550   47.3830 C   0  0  0  0  0  0  0  0  0  0  0  0
  1 14  1  0
  4 16  1  0
  5  2  4  0
  6  2  4  0
  7  5  1  0
  7 22  1  0
  8 14  1  0
 10 20  1  0
 11  8  2  0
 13 16  1  0
 14 12  1  0
 15 10  2  0
 15 11  1  0
 16  9  2  0
 17  3  1  0
 18  6  4  0
 19 13  1  0
 19 11  1  0
 19  3  1  0
 20  1  2  0
 21 18  4  0
 22  4  2  3
 23 21  4  0
 23  5  4  0
M  END
$$$$

     RDKit          3D

 27 31  0  0  0  0  0  0  0  0999 V2000
    8.2570   45.5710   51.2670 C   0  0  0  0  0  0  0  0  0  0  0  0
    5.8220   41.7610   49.7920 C   0  0  0  0  0  0  0  0  0  0  0  0
    6.4030   46.2510   52.6480 C   0  0  0  0  0  0  0  0  0  0  0  0
    7.5940   42.7470   48.5090 N   0  0  0  0  0  0  0  0  0  0  0  0
    4.0010   40.6630   48.6230 C   0  0  0  0  0  0  0  0  0  0  0  0
    4.6060   41.0780   49.7910 C   0  0  0  0  0  0  0  0  0  0  0  0
    4.6660   40.9340   47.4420 C   0  0  0  0  0  0  0  0  0  0  0  0
    5.9150   44.7400   50.6690 N   0  0  0  0  0  0  0  0  0  0  0  0
    2.4110   45.1140   54.7370 C   0  0  0  0  0  0  0  0  0  0  0  0
    1.9090   44.8020   53.4480 C   0  0  0  0  0  0  0  0  0  0  0  0
    3.5960   45.8680   54.8120 C   0  0  0  0  0  0  0  0  0  0  0  0
    4.3950   46.1140   53.6510 C   0  0  0  0  0  0  0  0  0  0  0  0
    5.9190   41.6530   47.4060 C   0  0  0  0  0  0  0  0  0  0  0  0
    7.2030   44.8530   50.5120 N   0  0  0  0  0  0  0  0  0  0  0  0
    9.4550   44.8670   50.4620 C   0  0  0  0  0  0  0  0  0  0  0  0
    7.9190   43.7810   49.4530 C   0  0  0  0  0  0  0  0  0  0  0  0
    4.1680   45.4950   52.4040 C   0  0  0  0  0  0  0  0  0  0  0  0
    6.4420   42.0760   48.5210 C   0  0  0  0  0  0  0  0  0  0  0  0
    8.1790   47.4980   53.7250 C   0  0  0  0  0  0  0  0  0  0  0  0
   10.7980   45.1910   50.8110 N   0  0  0  0  0  0  0  0  0  0  0  0
    9.0830   43.9790   49.5380 N   0  0  0  0  0  0  0  0  0  0  0  0
    2.6690   44.9690   52.3330 C   0  0  0  0  0  0  0  0  0  0  0  0
    9.8990   47.2090   53.4660 S   0  0  0  0  0  0  0  0  0  0  0  0
    2.0510   44.7050   50.6180 Cl  0  0  0  0  0  0  0  0  0  0  0  0
    7.6540   46.4060   52.5360 N   0  0  0  0  0  0  0  0  0  0  0  0
    5.5080   45.4710   51.7070 C   0  0  0  0  0  0  0  0  0  0  0  0
    5.6060   46.6220   53.7370 N   0  0  0  0  0  0  0  0  0  0  0  0
  1 14  1  0
  1 25  1  0
  3 27  2  0
  4 18  1  0
  4 16  1  0
  5  6  4  0
  6  2  4  0
  7  5  4  0
  8 26  2  0
  9 11  4  0
 10  9  4  0
 12 27  1  0
 12 11  4  0
 13  7  4  0
 13 18  4  0
 14  8  1  0
 15 20  1  0
 15  1  1  0
 16 21  2  0
 16 14  1  0
 17 12  4  0
 18  2  4  0
 21 15  1  0
 22 17  4  0
 22 10  4  0
 23 19  1  0
 24 22  1  0
 25  3  1  0
 25 19  1  0
 26 17  1  0
 26  3  1  0
M  END
$$$$

     RDKit          3D

 36 38  0  0  0  0  0  0  0  0999 V2000
    7.4400   48.0820   53.9980 C   0  0  0  0  0  0  0  0  0  0  0  0
    9.4020   44.8150   50.4680 C   0  0  0  0  0  0  0  0  0  0  0  0
    9.2530   46.6690   52.3550 O   0  0  0  0  0  0  0  0  0  0  0  0
    6.4630   42.0630   48.5940 C   0  0  0  0  0  0  0  0  0  0  0  0
    4.5830   45.9910   53.8480 N   0  0  0  0  0  0  0  0  0  0  0  0
    2.8170   39.0050   47.3210 N   0  0  0  0  0  0  0  0  0  0  0  0
    1.3380   44.5210   54.6750 C   0  0  0  0  0  0  0  0  0  0  0  0
    7.8710   43.7230   49.3660 C   0  0  0  0  0  0  0  0  0  0  0  0
    3.1970   45.7860   53.7690 C   0  0  0  0  0  0  0  0  0  0  0  0
    6.4780   47.1990   53.5400 C   0  0  0  0  0  0  0  0  0  0  0  0
    2.7300   45.7490   56.0390 F   0  0  0  0  0  0  0  0  0  0  0  0
    6.8770   46.1230   52.7800 C   0  0  0  0  0  0  0  0  0  0  0  0
    0.1240   43.1430   53.2020 C   0  0  0  0  0  0  0  0  0  0  0  0
    7.6040   42.7750   48.4750 N   0  0  0  0  0  0  0  0  0  0  0  0
    4.6420   41.0820   49.8110 C   0  0  0  0  0  0  0  0  0  0  0  0
    4.0550   40.6440   48.6520 C   0  0  0  0  0  0  0  0  0  0  0  0
    5.8120   41.8010   49.8700 C   0  0  0  0  0  0  0  0  0  0  0  0
    2.9150   39.7050   46.2500 O   0  0  0  0  0  0  0  0  0  0  0  0
    4.4740   48.1580   54.3460 O   0  0  0  0  0  0  0  0  0  0  0  0
    1.5280   44.8530   52.3560 C   0  0  0  0  0  0  0  0  0  0  0  0
    4.0670   40.5020   46.0470 C   0  0  0  0  0  0  0  0  0  0  0  0
    1.0200   44.1950   53.3880 N   0  0  0  0  0  0  0  0  0  0  0  0
    3.1110   46.5740   50.3010 F   0  0  0  0  0  0  0  0  0  0  0  0
    2.9740   46.7160   51.5150 C   0  0  0  0  0  0  0  0  0  0  0  0
    6.8630   44.7040   50.2290 S   0  0  0  0  0  0  0  0  0  0  0  0
    9.0760   43.9930   49.5640 N   0  0  0  0  0  0  0  0  0  0  0  0
    5.0530   47.1750   53.9530 C   0  0  0  0  0  0  0  0  0  0  0  0
    2.4330   45.3260   54.9010 C   0  0  0  0  0  0  0  0  0  0  0  0
    2.5410   45.7570   52.5340 C   0  0  0  0  0  0  0  0  0  0  0  0
    8.1120   46.1940   52.0050 C   0  0  0  0  0  0  0  0  0  0  0  0
    1.0180   44.5610   51.1310 F   0  0  0  0  0  0  0  0  0  0  0  0
    5.8140   41.6480   47.4260 C   0  0  0  0  0  0  0  0  0  0  0  0
    8.1960   48.7420   53.2340 N   0  0  0  0  0  0  0  0  0  0  0  0
    4.6540   40.9040   47.4130 C   0  0  0  0  0  0  0  0  0  0  0  0
   10.7580   45.2860   50.6980 N   0  0  0  0  0  0  0  0  0  0  0  0
    8.2910   45.3670   51.0460 N   0  0  0  0  0  0  0  0  0  0  0  0
  2 35  1  0
  2 36  1  0
  4 17  4  0
  5 27  1  0
  7 28  1  0
  8 26  2  0
  8 25  1  0
  9  5  1  0
  9 28  2  0
 10 12  1  0
 10 27  1  0
 10  1  1  0
 13 22  1  0
 14  4  1  0
 14  8  1  0
 15 17  4  0
 16 15  4  0
 18  6  1  0
 20 29  2  0
 20 22  1  0
 21 18  1  0
 21 34  1  0
 22  7  1  0
 23 24  1  0
 24 29  1  0
 25 36  1  0
 26  2  1  0
 27 19  2  0
 28 11  1  0
 29  9  1  0
 30  3  2  0
 30 12  1  0
 31 20  1  0
 32  4  4  0
 33  1  2  0
 34 32  4  0
 34 16  4  0
 36 30  1  0
M  END
$$$$

     RDKit          3D

 18 18  0  0  0  0  0  0  0  0999 V2000
    8.2560   45.4830   51.3910 C   0  0  0  0  0  0  0  0  0  0  0  0
    6.1930   47.7070   53.6350 N   0  0  0  0  0  0  0  0  0  0  0  0
    6.7880   43.9870   50.5270 N   0  0  0  0  0  0  0  0  0  0  0  0
   10.0170   46.4280   52.5520 O   0  0  0  0  0  0  0  0  0  0  0  0
    7.1570   46.1280   52.2730 C   0  0  0  0  0  0  0  0  0  0  0  0
    7.1630   45.3170   51.1700 N   0  0  0  0  0  0  0  0  0  0  0  0
    4.0580   40.6470   48.6250 C   0  0  0  0  0  0  0  0  0  0  0  0
    5.8710   41.8850   49.8130 C   0  0  0  0  0  0  0  0  0  0  0  0
    5.8600   41.6170   47.3900 C   0  0  0  0  0  0  0  0  0  0  0  0
    7.8840   43.6410   49.6550 C   0  0  0  0  0  0  0  0  0  0  0  0
    7.0050   47.4810   52.4380 C   0  0  0  0  0  0  0  0  0  0  0  0
    4.6630   40.9520   47.4100 C   0  0  0  0  0  0  0  0  0  0  0  0
   10.7470   45.3300   50.6570 N   0  0  0  0  0  0  0  0  0  0  0  0
    6.4010   42.2640   48.5190 C   0  0  0  0  0  0  0  0  0  0  0  0
    4.6770   41.1220   49.8320 C   0  0  0  0  0  0  0  0  0  0  0  0
    9.6970   45.7830   51.5850 C   0  0  0  0  0  0  0  0  0  0  0  0
    7.6140   42.7830   48.4960 N   0  0  0  0  0  0  0  0  0  0  0  0
    9.0600   43.9200   49.5440 N   0  0  0  0  0  0  0  0  0  0  0  0
  1 16  1  0
  3  6  1  0
  5 11  1  0
  6  1  1  0
  6  5  1  0
  7 15  4  0
  8 15  4  0
  9 12  4  0
  9 14  4  0
 10  3  1  0
 11  2  1  0
 12  7  4  0
 13 16  1  0
 14  8  4  0
 16  4  2  0
 17 14  1  0
 17 10  1  0
 18 10  2  0
M  END
$$$$

     RDKit          3D

 23 25  0  0  0  0  0  0  0  0999 V2000
    4.6950   41.1200   49.8390 C   0  0  0  0  0  0  0  0  0  0  0  0
    4.3770   45.3580   55.7210 C   0  0  0  0  0  0  0  0  0  0  0  0
    4.8630   45.9930   54.4230 N   0  0  0  0  0  0  0  0  0  0  0  0
    5.8550   41.6330   47.3810 C   0  0  0  0  0  0  0  0  0  0  0  0
    7.2140   45.4340   51.1350 N   0  0  0  0  0  0  0  0  0  0  0  0
    4.6420   40.8810   47.4440 C   0  0  0  0  0  0  0  0  0  0  0  0
    6.3120   45.9780   52.1480 C   0  0  0  0  0  0  0  0  0  0  0  0
    7.8180   47.4490   53.3790 N   0  0  0  0  0  0  0  0  0  0  0  0
    4.1860   45.4760   53.2330 C   0  0  0  0  0  0  0  0  0  0  0  0
    2.7540   45.8670   53.3380 C   0  0  0  0  0  0  0  0  0  0  0  0
    8.4920   45.7370   51.3090 C   0  0  0  0  0  0  0  0  0  0  0  0
    9.4850   44.8990   50.5100 C   0  0  0  0  0  0  0  0  0  0  0  0
    5.9080   46.9730   54.4910 C   0  0  0  0  0  0  0  0  0  0  0  0
    5.8980   41.8530   49.8140 C   0  0  0  0  0  0  0  0  0  0  0  0
    6.4600   42.0690   48.5730 C   0  0  0  0  0  0  0  0  0  0  0  0
    9.1310   43.9730   49.6220 N   0  0  0  0  0  0  0  0  0  0  0  0
    6.7720   46.7670   53.2850 C   0  0  0  0  0  0  0  0  0  0  0  0
    7.6320   42.8240   48.5270 N   0  0  0  0  0  0  0  0  0  0  0  0
    4.0470   40.6430   48.6880 C   0  0  0  0  0  0  0  0  0  0  0  0
   10.8150   45.2260   50.7600 N   0  0  0  0  0  0  0  0  0  0  0  0
    6.8730   44.5250   50.2190 C   0  0  0  0  0  0  0  0  0  0  0  0
    7.8540   43.7710   49.4770 C   0  0  0  0  0  0  0  0  0  0  0  0
    9.0080   47.0860   52.2470 S   0  0  0  0  0  0  0  0  0  0  0  0
  3 13  1  0
  3  2  1  0
  4  6  4  0
  4 15  4  0
  5 11  1  0
  5  7  1  0
  6 19  4  0
  7 17  1  0
  9 10  1  0
  9  3  1  0
 11 23  1  0
 12 20  1  0
 12 11  2  0
 14  1  4  0
 15 14  4  0
 16 12  1  0
 17  8  1  0
 17 13  1  0
 18 15  1  0
 18 22  1  0
 19  1  4  0
 21  5  1  0
 22 16  2  0
 22 21  1  0
 23  8  1  0
M  END
$$$$

     RDKit          3D

 27 30  0  0  0  0  0  0  0  0999 V2000
    4.0310   40.6730   48.6210 C   0  0  0  0  0  0  0  0  0  0  0  0
    6.4730   42.0940   48.6220 C   0  0  0  0  0  0  0  0  0  0  0  0
    1.7420   45.3090   55.9090 C   0  0  0  0  0  0  0  0  0  0  0  0
    4.6310   41.1210   49.8000 C   0  0  0  0  0  0  0  0  0  0  0  0
    7.3640   45.9960   51.1850 C   0  0  0  0  0  0  0  0  0  0  0  0
    4.6430   40.9140   47.4120 C   0  0  0  0  0  0  0  0  0  0  0  0
    9.0390   47.6320   52.7410 C   0  0  0  0  0  0  0  0  0  0  0  0
    3.1850   45.3190   55.3720 C   0  0  0  0  0  0  0  0  0  0  0  0
    9.4260   44.8540   50.5020 C   0  0  0  0  0  0  0  0  0  0  0  0
    7.7250   47.7560   52.7980 C   0  0  0  0  0  0  0  0  0  0  0  0
    7.6280   42.7650   48.5410 N   0  0  0  0  0  0  0  0  0  0  0  0
    6.8040   46.9990   52.0110 C   0  0  0  0  0  0  0  0  0  0  0  0
    5.8650   41.8060   49.8140 C   0  0  0  0  0  0  0  0  0  0  0  0
    8.7270   45.8550   51.1980 C   0  0  0  0  0  0  0  0  0  0  0  0
    6.6410   44.6810   50.1860 S   0  0  0  0  0  0  0  0  0  0  0  0
    5.6540   47.1780   51.8290 N   0  0  0  0  0  0  0  0  0  0  0  0
   10.7970   45.1290   50.7710 N   0  0  0  0  0  0  0  0  0  0  0  0
    7.8680   43.7470   49.3690 C   0  0  0  0  0  0  0  0  0  0  0  0
    2.0700   45.6580   53.0570 C   0  0  0  0  0  0  0  0  0  0  0  0
    9.0750   43.8840   49.6700 N   0  0  0  0  0  0  0  0  0  0  0  0
    9.3210   46.6790   51.9780 N   0  0  0  0  0  0  0  0  0  0  0  0
    4.6680   46.5050   52.2230 C   0  0  0  0  0  0  0  0  0  0  0  0
    5.8190   41.6840   47.3860 C   0  0  0  0  0  0  0  0  0  0  0  0
    3.3030   45.7030   53.9120 C   0  0  0  0  0  0  0  0  0  0  0  0
    2.2930   45.9440   51.7300 C   0  0  0  0  0  0  0  0  0  0  0  0
    4.6510   46.0580   53.5480 C   0  0  0  0  0  0  0  0  0  0  0  0
    3.6150   46.3000   51.3050 C   0  0  0  0  0  0  0  0  0  0  0  0
  1  4  4  0
  2 13  4  0
  4 13  4  0
  5 14  4  0
  5 12  4  0
  6  1  4  0
  7 10  4  0
  8  3  1  0
  9 17  1  0
  9 14  1  0
 11  2  1  0
 11 18  1  0
 12 10  4  0
 14 21  4  0
 15  5  1  0
 16 12  1  0
 16 22  1  0
 18 20  2  0
 18 15  1  0
 19 24  4  0
 20  9  1  0
 21  7  4  0
 22 26  4  0
 23  6  4  0
 23  2  4  0
 24  8  1  0
 25 19  4  0
 26 24  4  0
 27 25  4  0
 27 22  4  0
M  END
$$$$

     RDKit          3D

 36 40  0  0  0  0  0  0  0  0999 V2000
    4.6620   40.9250   47.3840 C   0  0  0  0  0  0  0  0  0  0  0  0
    3.1310   45.1710   51.6680 C   0  0  0  0  0  0  0  0  0  0  0  0
    3.0300   46.5430   51.5310 C   0  0  0  0  0  0  0  0  0  0  0  0
    2.2640   39.4510   47.1430 N   0  0  0  0  0  0  0  0  0  0  0  0
    0.8930   40.3380   45.4630 O   0  0  0  0  0  0  0  0  0  0  0  0
    7.9720   47.9060   55.1420 N   0  0  0  0  0  0  0  0  0  0  0  0
    1.7860   45.2500   52.8500 O   0  0  0  0  0  0  0  0  0  0  0  0
    4.4340   47.4030   53.2720 C   0  0  0  0  0  0  0  0  0  0  0  0
    6.8850   47.3150   53.4240 C   0  0  0  0  0  0  0  0  0  0  0  0
    3.4900   46.3380   52.8770 N   0  0  0  0  0  0  0  0  0  0  0  0
    3.9880   40.6140   48.5240 C   0  0  0  0  0  0  0  0  0  0  0  0
    2.8100   39.6310   48.4410 C   0  0  0  0  0  0  0  0  0  0  0  0
    5.9970   42.5980   49.7920 C   0  0  0  0  0  0  0  0  0  0  0  0
    5.4930   41.8490   49.9170 C   0  0  0  0  0  0  0  0  0  0  0  0
    2.0820   40.6520   46.4210 N   0  0  0  0  0  0  0  0  0  0  0  0
    4.4890   44.6620   54.9370 Cl  0  0  0  0  0  0  0  0  0  0  0  0
    5.8990   41.6810   47.3550 C   0  0  0  0  0  0  0  0  0  0  0  0
    8.8600   47.3600   54.3970 C   0  0  0  0  0  0  0  0  0  0  0  0
    8.9640   47.6680   51.0670 O   0  0  0  0  0  0  0  0  0  0  0  0
    9.0240   46.4800   51.2800 C   0  0  0  0  0  0  0  0  0  0  0  0
    6.8850   47.8390   54.5700 N   0  0  0  0  0  0  0  0  0  0  0  0
    8.7390   46.1460   52.4200 N   0  0  0  0  0  0  0  0  0  0  0  0
    9.1140   43.9780   49.5360 N   0  0  0  0  0  0  0  0  0  0  0  0
    4.5210   41.0480   49.7810 C   0  0  0  0  0  0  0  0  0  0  0  0
    5.7440   47.0770   52.6970 C   0  0  0  0  0  0  0  0  0  0  0  0
    2.0850   44.2970   53.7490 C   0  0  0  0  0  0  0  0  0  0  0  0
    3.7200   40.7320   46.1010 C   0  0  0  0  0  0  0  0  0  0  0  0
    9.5060   45.1350   50.4240 C   0  0  0  0  0  0  0  0  0  0  0  0
    8.2250   46.9420   53.2870 C   0  0  0  0  0  0  0  0  0  0  0  0
    6.7450   43.9270   50.3810 S   0  0  0  0  0  0  0  0  0  0  0  0
    6.4470   42.2790   48.4670 C   0  0  0  0  0  0  0  0  0  0  0  0
   10.7760   45.2410   50.7510 N   0  0  0  0  0  0  0  0  0  0  0  0
    3.5310   44.1180   53.6070 C   0  0  0  0  0  0  0  0  0  0  0  0
    7.5520   42.7890   48.4940 N   0  0  0  0  0  0  0  0  0  0  0  0
   10.1090   47.2060   54.7360 C   0  0  0  0  0  0  0  0  0  0  0  0
    8.0120   43.6440   49.3160 C   0  0  0  0  0  0  0  0  0  0  0  0
  1 27  1  0
  1 11  1  0
  2  7  1  0
  2 10  1  0
  3  2  1  0
  3 10  1  0
  4 12  1  0
  5 15  1  0
  7 26  1  0
  9 21  4  0
 10  8  1  0
 11 12  1  0
 11 24  1  0
 13 14  2  0
 13 30  4  0
 15  4  1  0
 17  1  1  0
 17 31  2  0
 18 35  1  0
 18  6  4  0
 19 20  2  0
 20 22  1  0
 21  6  4  0
 22 29  1  0
 23 28  1  0
 24 14  2  0
 25  8  1  0
 25  9  1  0
 27 15  1  0
 28 32  2  0
 28 20  1  0
 29  9  4  0
 29 18  4  0
 31 34  4  0
 31 13  4  0
 33 26  1  0
 33 16  1  0
 34 36  4  0
 36 23  1  0
 36 30  4  0
M  END
$$$$

     RDKit          3D

 27 29  0  0  0  0  0  0  0  0999 V2000
    2.5800   39.5560   46.5720 C   0  0  0  0  0  0  0  0  0  0  0  0
    8.2970   47.7840   54.0790 O   0  0  0  0  0  0  0  0  0  0  0  0
    6.4390   42.0730   48.5570 C   0  0  0  0  0  0  0  0  0  0  0  0
    5.8970   41.8320   49.8100 C   0  0  0  0  0  0  0  0  0  0  0  0
    4.5590   46.5920   52.3810 C   0  0  0  0  0  0  0  0  0  0  0  0
    2.8060   38.5270   47.4850 O   0  0  0  0  0  0  0  0  0  0  0  0
    4.5380   44.9890   54.6230 C   0  0  0  0  0  0  0  0  0  0  0  0
    4.6720   41.1290   49.8190 C   0  0  0  0  0  0  0  0  0  0  0  0
    7.0190   46.5360   52.4740 N   0  0  0  0  0  0  0  0  0  0  0  0
    7.8120   43.8960   49.2320 N   0  0  0  0  0  0  0  0  0  0  0  0
    3.8030   40.4700   46.2150 C   0  0  0  0  0  0  0  0  0  0  0  0
    4.6110   40.9000   47.4360 C   0  0  0  0  0  0  0  0  0  0  0  0
    8.7730   45.8800   51.2960 C   0  0  0  0  0  0  0  0  0  0  0  0
    5.8080   46.2730   53.0320 C   0  0  0  0  0  0  0  0  0  0  0  0
    5.7620   45.3320   54.1180 C   0  0  0  0  0  0  0  0  0  0  0  0
    9.5180   44.9830   50.4630 C   0  0  0  0  0  0  0  0  0  0  0  0
    9.3000   46.6270   52.3740 N   0  0  0  0  0  0  0  0  0  0  0  0
    3.9460   41.0020   45.2220 O   0  0  0  0  0  0  0  0  0  0  0  0
    3.2990   46.2400   52.9440 C   0  0  0  0  0  0  0  0  0  0  0  0
   10.8120   45.2210   50.7520 N   0  0  0  0  0  0  0  0  0  0  0  0
    3.2860   45.4090   54.0500 C   0  0  0  0  0  0  0  0  0  0  0  0
    9.0850   44.0260   49.5210 N   0  0  0  0  0  0  0  0  0  0  0  0
    5.8420   41.6350   47.3600 C   0  0  0  0  0  0  0  0  0  0  0  0
    4.0600   40.6960   48.6810 C   0  0  0  0  0  0  0  0  0  0  0  0
    7.4050   45.9580   51.3290 C   0  0  0  0  0  0  0  0  0  0  0  0
    8.2170   47.0890   53.0390 C   0  0  0  0  0  0  0  0  0  0  0  0
    7.6210   42.7650   48.4760 N   0  0  0  0  0  0  0  0  0  0  0  0
  1  6  1  0
  3  4  4  0
  4  8  4  0
  5 19  4  0
  5 14  4  0
  9 14  1  0
  9 26  1  0
 10 22  1  0
 11  1  1  0
 11 12  1  0
 12 24  4  0
 13 16  1  0
 13 25  1  0
 13 17  1  0
 14 15  4  0
 15  7  4  0
 16 20  2  0
 17 26  1  0
 18 11  2  0
 19 21  4  0
 21  7  4  0
 22 16  1  0
 23 12  4  0
 23  3  4  0
 24  8  4  0
 25  9  1  0
 26  2  2  0
 27  3  1  0
 27 10  1  0
M  END
$$$$

     RDKit          3D

 18 19  0  0  0  0  0  0  0  0999 V2000
    7.5380   46.1190   51.5000 C   0  0  0  0  0  0  0  0  0  0  0  0
    6.4720   47.6460   52.8240 N   0  0  0  0  0  0  0  0  0  0  0  0
    9.0870   43.9430   49.5620 N   0  0  0  0  0  0  0  0  0  0  0  0
    5.7900   41.8550   49.8460 C   0  0  0  0  0  0  0  0  0  0  0  0
    7.8640   43.7910   49.2840 C   0  0  0  0  0  0  0  0  0  0  0  0
    8.8050   47.8330   52.7130 O   0  0  0  0  0  0  0  0  0  0  0  0
   10.7820   45.1360   50.7180 N   0  0  0  0  0  0  0  0  0  0  0  0
    9.4770   44.8500   50.4680 C   0  0  0  0  0  0  0  0  0  0  0  0
    5.8640   41.6810   47.4460 C   0  0  0  0  0  0  0  0  0  0  0  0
    5.5020   46.7550   52.2650 N   0  0  0  0  0  0  0  0  0  0  0  0
    4.6670   41.1030   49.8100 C   0  0  0  0  0  0  0  0  0  0  0  0
    7.6040   42.7660   48.5220 N   0  0  0  0  0  0  0  0  0  0  0  0
    4.0350   40.6360   48.6150 C   0  0  0  0  0  0  0  0  0  0  0  0
    8.5350   45.4880   50.9790 N   0  0  0  0  0  0  0  0  0  0  0  0
    7.7520   47.2540   52.3640 C   0  0  0  0  0  0  0  0  0  0  0  0
    4.6540   40.8900   47.3640 C   0  0  0  0  0  0  0  0  0  0  0  0
    6.4390   42.0930   48.5960 C   0  0  0  0  0  0  0  0  0  0  0  0
    6.1850   45.8780   51.5210 C   0  0  0  0  0  0  0  0  0  0  0  0
  1 18  2  0
  1 15  1  0
  3  8  1  0
  5  3  1  0
  8  7  2  0
  8 14  1  0
  9 17  4  0
 10  2  2  0
 11  4  4  0
 12 17  1  0
 12  5  1  0
 13 11  4  0
 14  1  1  0
 15  6  2  0
 15  2  1  0
 16  9  4  0
 16 13  4  0
 17  4  4  0
 18 10  1  0
M  END
$$$$

     RDKit          3D

 36 37  0  0  0  0  0  0  0  0999 V2000
   10.7940   45.3220   50.6490 N   0  0  0  0  0  0  0  0  0  0  0  0
    0.5080   45.1420   55.2150 C   0  0  0  0  0  0  0  0  0  0  0  0
    3.7600   45.7410   54.3180 C   0  0  0  0  0  0  0  0  0  0  0  0
    1.5900   45.4370   53.1870 C   0  0  0  0  0  0  0  0  0  0  0  0
    0.9140   44.2860   54.0550 C   0  0  0  0  0  0  0  0  0  0  0  0
    3.4740   44.1920   51.1230 O   0  0  0  0  0  0  0  0  0  0  0  0
    1.6720   46.0310   55.4160 C   0  0  0  0  0  0  0  0  0  0  0  0
    7.5520   42.7420   48.5560 N   0  0  0  0  0  0  0  0  0  0  0  0
    5.7840   41.7820   49.8520 C   0  0  0  0  0  0  0  0  0  0  0  0
    4.5760   44.6450   55.3730 Cl  0  0  0  0  0  0  0  0  0  0  0  0
    3.0080   46.4410   51.5760 O   0  0  0  0  0  0  0  0  0  0  0  0
    6.9200   43.3670   50.2220 C   0  0  0  0  0  0  0  0  0  0  0  0
    7.9090   43.3430   49.4140 C   0  0  0  0  0  0  0  0  0  0  0  0
    9.8080   46.7860   52.5080 N   0  0  0  0  0  0  0  0  0  0  0  0
    5.9010   41.6640   47.3730 C   0  0  0  0  0  0  0  0  0  0  0  0
   -0.3200   43.7330   53.2360 C   0  0  0  0  0  0  0  0  0  0  0  0
    5.1510   46.2640   53.3710 C   0  0  0  0  0  0  0  0  0  0  0  0
    5.4550   46.6300   53.4970 C   0  0  0  0  0  0  0  0  0  0  0  0
    7.5680   46.8230   53.2590 C   0  0  0  0  0  0  0  0  0  0  0  0
    8.2830   45.0860   51.3230 C   0  0  0  0  0  0  0  0  0  0  0  0
    6.2210   46.0170   52.3870 C   0  0  0  0  0  0  0  0  0  0  0  0
    4.6860   40.9100   47.3930 C   0  0  0  0  0  0  0  0  0  0  0  0
    8.1550   47.3900   54.3860 C   0  0  0  0  0  0  0  0  0  0  0  0
    5.5330   47.2320   54.0680 N   0  0  0  0  0  0  0  0  0  0  0  0
    3.7190   42.8240   51.9040 C   0  0  0  0  0  0  0  0  0  0  0  0
    2.6080   45.5030   52.1540 C   0  0  0  0  0  0  0  0  0  0  0  0
    7.1430   44.3840   51.1190 N   0  0  0  0  0  0  0  0  0  0  0  0
    4.0030   40.6190   48.6380 C   0  0  0  0  0  0  0  0  0  0  0  0
    2.3900   45.9520   54.2730 N   0  0  0  0  0  0  0  0  0  0  0  0
    9.3090   47.8360   54.4320 N   0  0  0  0  0  0  0  0  0  0  0  0
   10.1260   47.5390   53.5650 C   0  0  0  0  0  0  0  0  0  0  0  0
    6.4420   42.0760   48.5430 C   0  0  0  0  0  0  0  0  0  0  0  0
    9.4060   44.8290   50.6010 C   0  0  0  0  0  0  0  0  0  0  0  0
    4.6430   41.0940   49.7950 C   0  0  0  0  0  0  0  0  0  0  0  0
    8.5480   46.1740   52.4060 C   0  0  0  0  0  0  0  0  0  0  0  0
    9.0850   43.9240   49.5770 N   0  0  0  0  0  0  0  0  0  0  0  0
  2  7  1  0
  3 10  1  0
  4 26  1  0
  4  5  1  0
  4 29  1  0
  5 16  1  0
  5  2  1  0
  6 25  1  0
  8 13  1  0
 11 26  2  0
 12 27  4  0
 13 36  4  0
 13 12  4  0
 14 31  4  0
 15 22  4  0
 15 32  4  0
 17 18  2  0
 18 24  1  0
 19 23  4  0
 20 35  1  0
 21 19  1  0
 21 18  1  0
 22 28  4  0
 23 30  4  0
 27 20  4  0
 28 34  4  0
 29  3  1  0
 29  7  1  0
 31 30  4  0
 32  8  1  0
 32  9  4  0
 33  1  1  0
 33 20  4  0
 34  9  4  0
 35 14  4  0
 35 19  4  0
 36 33  4  0
M  END
$$$$

     RDKit          3D

 18 17  0  0  0  0  0  0  0  0999 V2000
    7.6560   47.0450   54.4450 O   0  0  0  0  0  0  0  0  0  0  0  0
    5.8050   41.8820   49.8480 C   0  0  0  0  0  0  0  0  0  0  0  0
    4.6860   40.8960   47.4110 C   0  0  0  0  0  0  0  0  0  0  0  0
    7.2370   45.1540   50.6450 C   0  0  0  0  0  0  0  0  0  0  0  0
    7.0760   46.9140   52.8260 C   0  0  0  0  0  0  0  0  0  0  0  0
    9.5030   44.9400   50.4190 C   0  0  0  0  0  0  0  0  0  0  0  0
    7.6250   42.7730   48.5510 N   0  0  0  0  0  0  0  0  0  0  0  0
    6.3810   42.1710   48.6140 C   0  0  0  0  0  0  0  0  0  0  0  0
    4.0480   40.6910   48.6280 C   0  0  0  0  0  0  0  0  0  0  0  0
    6.3060   47.4660   53.3450 N   0  0  0  0  0  0  0  0  0  0  0  0
    8.3940   45.5900   50.9600 C   0  0  0  0  0  0  0  0  0  0  0  0
    7.9230   43.8210   49.3500 C   0  0  0  0  0  0  0  0  0  0  0  0
   10.7810   45.2780   50.7170 N   0  0  0  0  0  0  0  0  0  0  0  0
    8.5090   47.0450   52.0580 S   0  0  0  0  0  0  0  0  0  0  0  0
    5.8630   41.6280   47.3950 C   0  0  0  0  0  0  0  0  0  0  0  0
    9.0530   43.9450   49.5400 N   0  0  0  0  0  0  0  0  0  0  0  0
    6.7270   47.8150   54.0780 N   0  0  0  0  0  0  0  0  0  0  0  0
    4.6320   41.1120   49.8140 C   0  0  0  0  0  0  0  0  0  0  0  0
  3  9  4  0
  4 11  2  0
  5 10  1  0
  6 13  2  0
  6 11  1  0
  7  8  1  0
  7 12  1  0
  8  2  4  0
  9 18  4  0
 10 17  1  0
 11 14  1  0
 12 16  1  0
 15  3  4  0
 15  8  4  0
 16  6  1  0
 17  1  1  0
 18  2  4  0
M  END
$$$$

     RDKit          3D

 28 31  0  0  0  0  0  0  0  0999 V2000
    6.5940   44.6070   50.2170 S   0  0  0  0  0  0  0  0  0  0  0  0
    4.6440   41.0750   49.7820 C   0  0  0  0  0  0  0  0  0  0  0  0
    3.4750   45.8450   54.0880 C   0  0  0  0  0  0  0  0  0  0  0  0
    9.3900   44.9660   50.5460 C   0  0  0  0  0  0  0  0  0  0  0  0
    8.2360   47.5030   53.2250 N   0  0  0  0  0  0  0  0  0  0  0  0
    4.6560   40.8970   47.4160 C   0  0  0  0  0  0  0  0  0  0  0  0
    5.8390   41.7600   49.8200 C   0  0  0  0  0  0  0  0  0  0  0  0
    7.6200   42.7330   48.5100 N   0  0  0  0  0  0  0  0  0  0  0  0
    9.0350   46.8290   52.3220 C   0  0  0  0  0  0  0  0  0  0  0  0
    9.0480   43.9230   49.5890 N   0  0  0  0  0  0  0  0  0  0  0  0
    1.2630   44.6760   56.4270 N   0  0  0  0  0  0  0  0  0  0  0  0
   10.7860   45.1850   50.7450 N   0  0  0  0  0  0  0  0  0  0  0  0
    1.3170   45.1320   53.0850 C   0  0  0  0  0  0  0  0  0  0  0  0
    7.0870   45.7670   51.4070 C   0  0  0  0  0  0  0  0  0  0  0  0
    8.4820   45.8180   51.3770 C   0  0  0  0  0  0  0  0  0  0  0  0
   10.2260   47.1150   52.4040 O   0  0  0  0  0  0  0  0  0  0  0  0
    3.9380   46.1540   52.7910 C   0  0  0  0  0  0  0  0  0  0  0  0
    7.8710   43.7610   49.4290 C   0  0  0  0  0  0  0  0  0  0  0  0
    2.1580   45.3310   54.2200 C   0  0  0  0  0  0  0  0  0  0  0  0
    1.7700   45.4900   51.8440 C   0  0  0  0  0  0  0  0  0  0  0  0
    4.0740   40.6550   48.6310 C   0  0  0  0  0  0  0  0  0  0  0  0
    6.4840   42.0440   48.5880 C   0  0  0  0  0  0  0  0  0  0  0  0
    5.8660   41.5760   47.4210 C   0  0  0  0  0  0  0  0  0  0  0  0
    6.9240   47.3990   53.1830 C   0  0  0  0  0  0  0  0  0  0  0  0
    5.0960   46.6870   52.6060 N   0  0  0  0  0  0  0  0  0  0  0  0
    6.3080   46.5870   52.3190 C   0  0  0  0  0  0  0  0  0  0  0  0
    1.7030   44.9590   55.4040 C   0  0  0  0  0  0  0  0  0  0  0  0
    3.0600   46.0470   51.6430 C   0  0  0  0  0  0  0  0  0  0  0  0
  1 14  1  0
  2  7  4  0
  3 19  4  0
  4 12  1  0
  4 15  1  0
  6 23  4  0
  6 21  4  0
  8 22  1  0
  8 18  1  0
  9 16  2  0
  9  5  4  0
 10  4  1  0
 13 19  4  0
 14 26  4  0
 15 14  4  0
 15  9  4  0
 17  3  4  0
 18 10  2  0
 18  1  1  0
 19 27  1  0
 20 13  4  0
 21  2  4  0
 22  7  4  0
 23 22  4  0
 24  5  4  0
 25 17  1  0
 26 25  1  0
 26 24  4  0
 27 11  3  0
 28 20  4  0
 28 17  4  0
M  END
$$$$

     RDKit          3D

 23 25  0  0  0  0  0  0  0  0999 V2000
    2.2670   45.4570   52.5740 C   0  0  0  0  0  0  0  0  0  0  0  0
    7.1950   47.5440   52.4300 S   0  0  0  0  0  0  0  0  0  0  0  0
    6.4560   42.0080   48.5510 C   0  0  0  0  0  0  0  0  0  0  0  0
    7.9210   43.7070   49.1700 C   0  0  0  0  0  0  0  0  0  0  0  0
    5.8920   41.7960   49.8040 C   0  0  0  0  0  0  0  0  0  0  0  0
    2.1750   45.9000   54.0250 C   0  0  0  0  0  0  0  0  0  0  0  0
    4.5980   45.4580   54.1740 C   0  0  0  0  0  0  0  0  0  0  0  0
    4.6510   41.1190   49.7730 C   0  0  0  0  0  0  0  0  0  0  0  0
    8.5020   45.6710   51.1480 N   0  0  0  0  0  0  0  0  0  0  0  0
    5.9520   46.3170   52.4220 C   0  0  0  0  0  0  0  0  0  0  0  0
    7.6050   42.7690   48.5020 N   0  0  0  0  0  0  0  0  0  0  0  0
    8.5630   46.8470   51.8050 C   0  0  0  0  0  0  0  0  0  0  0  0
    6.1010   45.2130   51.7260 N   0  0  0  0  0  0  0  0  0  0  0  0
    7.2200   45.2290   51.1810 C   0  0  0  0  0  0  0  0  0  0  0  0
    5.8470   41.5960   47.4100 C   0  0  0  0  0  0  0  0  0  0  0  0
   10.7980   45.2690   50.7490 N   0  0  0  0  0  0  0  0  0  0  0  0
    4.6190   40.8950   47.3990 C   0  0  0  0  0  0  0  0  0  0  0  0
    4.6440   46.3600   52.9720 C   0  0  0  0  0  0  0  0  0  0  0  0
    3.6020   45.9630   51.9570 C   0  0  0  0  0  0  0  0  0  0  0  0
    3.2370   45.2010   54.7410 C   0  0  0  0  0  0  0  0  0  0  0  0
    9.5150   44.9540   50.4200 C   0  0  0  0  0  0  0  0  0  0  0  0
    9.0500   43.9590   49.5680 N   0  0  0  0  0  0  0  0  0  0  0  0
    4.0750   40.6450   48.6840 C   0  0  0  0  0  0  0  0  0  0  0  0
  1  6  1  0
  3  5  4  0
  4 22  2  3
  6 20  1  0
  7 20  1  0
  8  5  4  0
  9 14  1  0
  9 12  1  0
 10  2  1  0
 10 18  1  0
 11  3  1  0
 11  4  1  0
 12  2  1  0
 13 10  1  0
 14 13  1  0
 15  3  4  0
 17 15  4  0
 17 23  4  0
 18  7  1  0
 19  1  1  0
 19 18  1  0
 21 16  2  0
 21  9  1  0
 22 21  1  0
 23  8  4  0
M  END
$$$$

     RDKit          3D

 27 29  0  0  0  0  0  0  0  0999 V2000
    3.4620   45.9380   53.8690 N   0  0  0  0  0  0  0  0  0  0  0  0
    8.1850   46.8270   51.7470 C   0  0  0  0  0  0  0  0  0  0  0  0
    6.4880   42.0610   48.5760 C   0  0  0  0  0  0  0  0  0  0  0  0
    6.9280   44.8290   50.2190 S   0  0  0  0  0  0  0  0  0  0  0  0
    7.5940   42.7460   48.5560 N   0  0  0  0  0  0  0  0  0  0  0  0
    4.8170   46.2040   51.7850 C   0  0  0  0  0  0  0  0  0  0  0  0
    4.1860   47.0310   54.5800 C   0  0  0  0  0  0  0  0  0  0  0  0
    7.9230   43.6950   49.3980 C   0  0  0  0  0  0  0  0  0  0  0  0
    5.8850   46.5850   52.7350 N   0  0  0  0  0  0  0  0  0  0  0  0
    4.6370   41.0770   49.7930 C   0  0  0  0  0  0  0  0  0  0  0  0
    5.8640   41.6380   47.4560 C   0  0  0  0  0  0  0  0  0  0  0  0
    4.2420   40.3590   46.0410 C   0  0  0  0  0  0  0  0  0  0  0  0
    9.1160   43.9870   49.6020 N   0  0  0  0  0  0  0  0  0  0  0  0
    2.9460   40.1610   45.7230 O   0  0  0  0  0  0  0  0  0  0  0  0
    4.0410   40.6640   48.6630 C   0  0  0  0  0  0  0  0  0  0  0  0
    1.8910   40.2990   46.3910 N   0  0  0  0  0  0  0  0  0  0  0  0
    4.6490   40.9120   47.4150 C   0  0  0  0  0  0  0  0  0  0  0  0
   10.8020   45.2700   50.7080 N   0  0  0  0  0  0  0  0  0  0  0  0
    9.4540   44.9820   50.4370 C   0  0  0  0  0  0  0  0  0  0  0  0
    8.3710   45.6760   50.9450 C   0  0  0  0  0  0  0  0  0  0  0  0
    6.9260   47.2540   52.0470 N   0  0  0  0  0  0  0  0  0  0  0  0
    3.7790   44.6450   54.4600 C   0  0  0  0  0  0  0  0  0  0  0  0
    3.4540   46.1840   52.4580 C   0  0  0  0  0  0  0  0  0  0  0  0
    2.8050   47.7870   52.2640 Cl  0  0  0  0  0  0  0  0  0  0  0  0
    5.4960   47.3130   53.8810 C   0  0  0  0  0  0  0  0  0  0  0  0
    5.8500   41.7510   49.8300 C   0  0  0  0  0  0  0  0  0  0  0  0
    9.1480   47.5000   52.1700 O   0  0  0  0  0  0  0  0  0  0  0  0
  1 22  1  0
  1  7  1  0
  2 21  1  0
  2 27  2  0
  3 26  4  0
  4 20  4  0
  5  3  1  0
  5  8  1  0
  6 23  1  0
  6  9  1  0
  8 13  4  0
  8  4  4  0
  9 25  1  0
 10 26  4  0
 11  3  4  0
 12 17  1  0
 13 19  4  0
 14 12  1  0
 14 16  1  0
 15 10  4  0
 17 11  4  0
 17 15  4  0
 19 18  1  0
 19 20  4  0
 20  2  1  0
 21  9  1  0
 23 24  1  0
 23  1  1  0
 25  7  1  0
M  END
$$$$

     RDKit          3D

 36 39  0  0  0  0  0  0  0  0999 V2000
    4.7690   44.2450   54.7750 C   0  0  0  0  0  0  0  0  0  0  0  0
    6.9530   46.6180   52.3150 C   0  0  0  0  0  0  0  0  0  0  0  0
    6.9550   44.5380   50.2940 S   0  0  0  0  0  0  0  0  0  0  0  0
    8.5670   47.8170   54.4150 C   0  0  0  0  0  0  0  0  0  0  0  0
    6.0610   46.4580   51.8120 O   0  0  0  0  0  0  0  0  0  0  0  0
    8.1940   46.1670   52.1920 N   0  0  0  0  0  0  0  0  0  0  0  0
    4.9200   47.1810   53.7220 C   0  0  0  0  0  0  0  0  0  0  0  0
   -0.7610   45.4700   52.1250 O   0  0  0  0  0  0  0  0  0  0  0  0
    3.3960   39.4800   45.7690 O   0  0  0  0  0  0  0  0  0  0  0  0
    4.6120   41.0820   49.8140 C   0  0  0  0  0  0  0  0  0  0  0  0
    9.4260   44.7840   50.3930 C   0  0  0  0  0  0  0  0  0  0  0  0
   10.7830   45.1790   50.7230 N   0  0  0  0  0  0  0  0  0  0  0  0
    8.2850   45.2990   51.0580 C   0  0  0  0  0  0  0  0  0  0  0  0
    5.8780   41.6230   47.4300 C   0  0  0  0  0  0  0  0  0  0  0  0
    0.7600   43.9960   51.3570 C   0  0  0  0  0  0  0  0  0  0  0  0
    4.0500   40.6130   48.6340 C   0  0  0  0  0  0  0  0  0  0  0  0
    4.6390   40.9790   47.3920 C   0  0  0  0  0  0  0  0  0  0  0  0
    2.5750   45.8650   53.9230 C   0  0  0  0  0  0  0  0  0  0  0  0
    3.8990   46.3870   54.5400 N   0  0  0  0  0  0  0  0  0  0  0  0
    9.5460   47.2730   53.6660 C   0  0  0  0  0  0  0  0  0  0  0  0
    6.4200   46.9140   53.7440 C   0  0  0  0  0  0  0  0  0  0  0  0
    2.7130   44.4310   53.7190 N   0  0  0  0  0  0  0  0  0  0  0  0
    0.3840   45.1300   52.2620 C   0  0  0  0  0  0  0  0  0  0  0  0
    3.9670   44.1880   53.4330 C   0  0  0  0  0  0  0  0  0  0  0  0
    1.7840   43.5390   53.6910 C   0  0  0  0  0  0  0  0  0  0  0  0
    4.6080   45.5700   55.4710 C   0  0  0  0  0  0  0  0  0  0  0  0
    5.8210   41.7540   49.8070 C   0  0  0  0  0  0  0  0  0  0  0  0
    7.5660   42.7720   48.4920 N   0  0  0  0  0  0  0  0  0  0  0  0
    3.9990   40.5500   46.0090 C   0  0  0  0  0  0  0  0  0  0  0  0
    1.3200   45.8630   53.0470 C   0  0  0  0  0  0  0  0  0  0  0  0
    4.6350   43.7540   52.5400 O   0  0  0  0  0  0  0  0  0  0  0  0
    7.1730   47.4980   54.4700 C   0  0  0  0  0  0  0  0  0  0  0  0
    6.4260   42.0450   48.6210 C   0  0  0  0  0  0  0  0  0  0  0  0
    9.3000   46.5170   52.6410 C   0  0  0  0  0  0  0  0  0  0  0  0
    9.0340   43.9580   49.5470 N   0  0  0  0  0  0  0  0  0  0  0  0
    7.9530   43.6340   49.3600 C   0  0  0  0  0  0  0  0  0  0  0  0
  1 26  1  0
  2 21  1  0
  3 13  4  0
  4 32  1  0
  5  2  2  0
  6  2  1  0
  6 34  1  0
  7 19  1  0
  8 23  2  0
  9 29  2  0
 11 12  1  0
 11 13  4  0
 13  6  1  0
 14 33  4  0
 15 23  1  0
 16 10  4  0
 17 14  4  0
 17 16  4  0
 18 30  1  0
 18 19  1  0
 19 26  1  0
 20  4  1  0
 21  7  1  0
 21 32  1  0
 22 18  1  0
 23 30  1  0
 24 22  1  0
 24  1  1  0
 25 22  1  0
 27 10  4  0
 28 33  1  0
 28 36  1  0
 29 17  1  0
 31 24  2  0
 33 27  4  0
 34 20  2  0
 35 11  4  0
 36 35  4  0
 36  3  4  0
M  END
$$$$

     RDKit          3D

 27 30  0  0  0  0  0  0  0  0999 V2000
    3.6910   44.9790   53.9370 C   0  0  0  0  0  0  0  0  0  0  0  0
    1.5220   45.6590   52.3180 C   0  0  0  0  0  0  0  0  0  0  0  0
    5.7900   41.7720   49.8410 C   0  0  0  0  0  0  0  0  0  0  0  0
    9.0740   43.9480   49.5850 N   0  0  0  0  0  0  0  0  0  0  0  0
    2.4710   44.3300   54.1050 C   0  0  0  0  0  0  0  0  0  0  0  0
    4.5250   41.1700   49.8460 C   0  0  0  0  0  0  0  0  0  0  0  0
    2.7530   46.3050   52.0920 C   0  0  0  0  0  0  0  0  0  0  0  0
    9.4410   44.8920   50.5680 C   0  0  0  0  0  0  0  0  0  0  0  0
    7.1500   45.5150   51.3060 N   0  0  0  0  0  0  0  0  0  0  0  0
    4.6860   40.9060   47.4330 C   0  0  0  0  0  0  0  0  0  0  0  0
    4.8110   44.6630   54.8870 C   0  0  0  0  0  0  0  0  0  0  0  0
    7.6060   42.7450   48.5030 N   0  0  0  0  0  0  0  0  0  0  0  0
    6.5500   46.3170   52.3270 C   0  0  0  0  0  0  0  0  0  0  0  0
    5.1900   46.4360   52.5600 N   0  0  0  0  0  0  0  0  0  0  0  0
    7.4500   47.0270   53.0360 N   0  0  0  0  0  0  0  0  0  0  0  0
    4.0560   40.6410   48.6770 C   0  0  0  0  0  0  0  0  0  0  0  0
    8.6640   46.6150   52.6130 C   0  0  0  0  0  0  0  0  0  0  0  0
    1.3360   44.6890   53.3100 C   0  0  0  0  0  0  0  0  0  0  0  0
    3.5900   41.2520   51.2490 Cl  0  0  0  0  0  0  0  0  0  0  0  0
    8.5280   45.6910   51.4760 C   0  0  0  0  0  0  0  0  0  0  0  0
    3.9000   45.9260   52.8910 C   0  0  0  0  0  0  0  0  0  0  0  0
    6.4010   42.0460   48.6330 C   0  0  0  0  0  0  0  0  0  0  0  0
    5.8400   41.6220   47.4150 C   0  0  0  0  0  0  0  0  0  0  0  0
   10.7470   45.1610   50.6900 N   0  0  0  0  0  0  0  0  0  0  0  0
    9.8410   46.9900   53.1730 N   0  0  0  0  0  0  0  0  0  0  0  0
    7.7560   43.8030   49.4650 C   0  0  0  0  0  0  0  0  0  0  0  0
    6.8920   44.6250   50.2760 C   0  0  0  0  0  0  0  0  0  0  0  0
  1  5  4  0
  1 11  1  0
  2 18  4  0
  3  6  4  0
  4  8  1  0
  6 19  1  0
  7  2  4  0
  7 21  4  0
  8 24  1  0
  8 20  2  0
  9 20  1  0
  9 13  1  0
 10 16  4  0
 12 22  1  0
 12 26  1  0
 13 14  1  0
 13 15  2  0
 14 21  1  0
 16  6  4  0
 17 15  1  0
 17 25  1  0
 18  5  4  0
 20 17  1  0
 21  1  4  0
 22  3  4  0
 23 10  4  0
 23 22  4  0
 26  4  2  0
 26 27  1  0
 27  9  1  0
M  END
$$$$

     RDKit          3D

 28 31  0  0  0  0  0  0  0  0999 V2000
   10.1450   47.0080   51.7540 O   0  0  0  0  0  0  0  0  0  0  0  0
    1.7540   45.4810   52.5650 C   0  0  0  0  0  0  0  0  0  0  0  0
    5.8680   41.6170   47.3850 C   0  0  0  0  0  0  0  0  0  0  0  0
    4.0500   40.6210   48.6460 C   0  0  0  0  0  0  0  0  0  0  0  0
    7.5660   42.8070   48.4940 N   0  0  0  0  0  0  0  0  0  0  0  0
    5.8120   41.8690   49.8360 C   0  0  0  0  0  0  0  0  0  0  0  0
    9.0560   43.8180   49.5260 N   0  0  0  0  0  0  0  0  0  0  0  0
    6.0950   46.0200   51.1450 N   0  0  0  0  0  0  0  0  0  0  0  0
    8.4400   48.0000   54.5140 N   0  0  0  0  0  0  0  0  0  0  0  0
    6.4480   42.1130   48.6020 C   0  0  0  0  0  0  0  0  0  0  0  0
    3.8640   44.9370   53.2560 C   0  0  0  0  0  0  0  0  0  0  0  0
    3.7460   46.8760   51.8230 C   0  0  0  0  0  0  0  0  0  0  0  0
    3.1150   45.5950   52.2000 N   0  0  0  0  0  0  0  0  0  0  0  0
    2.8320   44.8490   54.3170 C   0  0  0  0  0  0  0  0  0  0  0  0
    1.6610   44.3640   53.4820 C   0  0  0  0  0  0  0  0  0  0  0  0
    7.3410   46.3680   51.5850 C   0  0  0  0  0  0  0  0  0  0  0  0
    9.7560   46.0040   51.2500 C   0  0  0  0  0  0  0  0  0  0  0  0
    8.1890   44.5240   50.1400 C   0  0  0  0  0  0  0  0  0  0  0  0
    5.9600   47.5760   52.8180 N   0  0  0  0  0  0  0  0  0  0  0  0
    8.2720   48.2500   53.1070 C   0  0  0  0  0  0  0  0  0  0  0  0
   10.7790   45.2110   50.8030 N   0  0  0  0  0  0  0  0  0  0  0  0
    8.4120   45.6090   50.9860 C   0  0  0  0  0  0  0  0  0  0  0  0
    5.2420   46.6670   51.9450 C   0  0  0  0  0  0  0  0  0  0  0  0
    0.0720   44.3180   54.2510 Cl  0  0  0  0  0  0  0  0  0  0  0  0
    4.6240   40.8350   47.4070 C   0  0  0  0  0  0  0  0  0  0  0  0
    7.4620   43.8060   49.4350 N   0  0  0  0  0  0  0  0  0  0  0  0
    4.6630   41.1230   49.8370 C   0  0  0  0  0  0  0  0  0  0  0  0
    7.2460   47.3210   52.4980 C   0  0  0  0  0  0  0  0  0  0  0  0
  2 15  1  0
  3 25  4  0
  3 10  4  0
  4 27  4  0
  5 10  1  0
  5 26  1  0
  6 27  4  0
  7 18  1  0
  8 16  1  0
  8 23  2  0
 10  6  4  0
 11 14  1  0
 12 23  1  0
 12 13  1  0
 13  2  1  0
 13 11  1  0
 15 24  1  0
 15 14  1  0
 16 22  1  0
 16 28  1  0
 17  1  2  0
 18 22  2  3
 20  9  1  0
 21 17  1  0
 22 17  1  0
 23 19  1  0
 25  4  4  0
 26  7  1  0
 26 18  1  0
 28 19  2  0
 28 20  1  0
M  END
$$$$

     RDKit          3D

 23 25  0  0  0  0  0  0  0  0999 V2000
    4.0350   40.6250   48.6230 C   0  0  0  0  0  0  0  0  0  0  0  0
    7.3870   47.2640   52.6890 N   0  0  0  0  0  0  0  0  0  0  0  0
    5.8740   41.7990   49.7770 C   0  0  0  0  0  0  0  0  0  0  0  0
    3.6640   44.8070   53.0330 N   0  0  0  0  0  0  0  0  0  0  0  0
    9.0950   43.9390   49.5380 N   0  0  0  0  0  0  0  0  0  0  0  0
    6.4000   42.0710   48.6260 C   0  0  0  0  0  0  0  0  0  0  0  0
    3.7820   44.1260   51.8750 C   0  0  0  0  0  0  0  0  0  0  0  0
    7.5530   42.7890   48.4940 N   0  0  0  0  0  0  0  0  0  0  0  0
    5.8790   41.6410   47.3470 C   0  0  0  0  0  0  0  0  0  0  0  0
    8.2690   45.6520   51.0820 C   0  0  0  0  0  0  0  0  0  0  0  0
    8.3870   46.6280   52.1770 C   0  0  0  0  0  0  0  0  0  0  0  0
   10.7960   45.2370   50.7090 N   0  0  0  0  0  0  0  0  0  0  0  0
    3.6740   46.2580   52.8510 C   0  0  0  0  0  0  0  0  0  0  0  0
    4.6340   40.9140   47.4340 C   0  0  0  0  0  0  0  0  0  0  0  0
    7.6140   43.9470   49.4910 N   0  0  0  0  0  0  0  0  0  0  0  0
    2.8460   44.5730   54.1640 C   0  0  0  0  0  0  0  0  0  0  0  0
    5.6370   45.6690   51.0820 N   0  0  0  0  0  0  0  0  0  0  0  0
    9.4430   44.9440   50.4230 C   0  0  0  0  0  0  0  0  0  0  0  0
    4.5920   41.1670   49.8180 C   0  0  0  0  0  0  0  0  0  0  0  0
    6.9630   45.2280   50.6060 C   0  0  0  0  0  0  0  0  0  0  0  0
    4.5470   44.7630   50.7070 C   0  0  0  0  0  0  0  0  0  0  0  0
    4.9420   46.7090   52.1250 C   0  0  0  0  0  0  0  0  0  0  0  0
    9.4700   46.7830   52.7980 O   0  0  0  0  0  0  0  0  0  0  0  0
  1 19  4  0
  3 19  4  0
  4 16  1  0
  5 18  4  0
  6  3  4  0
  7  4  1  0
  8  6  1  0
  8 15  1  0
  9 14  4  0
  9  6  4  0
 10 11  1  0
 11  2  1  0
 11 23  2  0
 13  4  1  0
 14  1  4  0
 15  5  4  0
 15 20  4  0
 17 22  1  0
 18 12  1  0
 18 10  4  0
 20 10  4  0
 20 17  1  0
 21 17  1  0
 21  7  1  0
 22 13  1  0
M  END
$$$$

     RDKit          3D

 36 39  0  0  0  0  0  0  0  0999 V2000
    5.7460   48.8170   54.8060 O   0  0  0  0  0  0  0  0  0  0  0  0
    4.0760   40.6380   48.6680 C   0  0  0  0  0  0  0  0  0  0  0  0
    9.0020   48.2230   52.6980 C   0  0  0  0  0  0  0  0  0  0  0  0
    2.0850   46.3620   53.8320 C   0  0  0  0  0  0  0  0  0  0  0  0
    6.9760   44.7550   50.3100 S   0  0  0  0  0  0  0  0  0  0  0  0
    8.2720   46.2430   52.1650 C   0  0  0  0  0  0  0  0  0  0  0  0
    2.7780   45.5700   52.8370 N   0  0  0  0  0  0  0  0  0  0  0  0
    5.8720   41.6440   47.4230 C   0  0  0  0  0  0  0  0  0  0  0  0
    8.3040   45.3580   51.0630 C   0  0  0  0  0  0  0  0  0  0  0  0
    7.8230   48.5330   52.8100 N   0  0  0  0  0  0  0  0  0  0  0  0
    6.3870   42.1140   48.5420 C   0  0  0  0  0  0  0  0  0  0  0  0
    5.0110   45.6300   53.1850 C   0  0  0  0  0  0  0  0  0  0  0  0
    5.7490   47.8280   54.0360 C   0  0  0  0  0  0  0  0  0  0  0  0
    7.5830   42.7440   48.5050 N   0  0  0  0  0  0  0  0  0  0  0  0
    4.6450   46.8400   53.9370 C   0  0  0  0  0  0  0  0  0  0  0  0
    2.0030   44.6660   51.9740 C   0  0  0  0  0  0  0  0  0  0  0  0
    5.8640   41.8260   49.8420 C   0  0  0  0  0  0  0  0  0  0  0  0
    6.9840   47.6910   53.1810 C   0  0  0  0  0  0  0  0  0  0  0  0
    1.7760   45.3590   54.8880 N   0  0  0  0  0  0  0  0  0  0  0  0
    9.4970   44.8450   50.4470 C   0  0  0  0  0  0  0  0  0  0  0  0
    7.8440   43.7000   49.4210 C   0  0  0  0  0  0  0  0  0  0  0  0
    1.5380   43.0790   53.8080 C   0  0  0  0  0  0  0  0  0  0  0  0
    5.0350   46.2200   55.1700 O   0  0  0  0  0  0  0  0  0  0  0  0
    4.1530   44.8020   50.8160 N   0  0  0  0  0  0  0  0  0  0  0  0
   10.7890   45.2350   50.7800 N   0  0  0  0  0  0  0  0  0  0  0  0
    1.6210   43.2630   52.3490 C   0  0  0  0  0  0  0  0  0  0  0  0
    6.4740   45.2950   53.7490 C   0  0  0  0  0  0  0  0  0  0  0  0
    4.6360   40.8910   47.4740 C   0  0  0  0  0  0  0  0  0  0  0  0
    2.0550   45.4720   56.2680 C   0  0  0  0  0  0  0  0  0  0  0  0
    2.2330   43.8460   49.9300 O   0  0  0  0  0  0  0  0  0  0  0  0
    9.1000   43.9210   49.6000 N   0  0  0  0  0  0  0  0  0  0  0  0
    2.8230   44.4330   50.7180 C   0  0  0  0  0  0  0  0  0  0  0  0
    4.6540   41.0990   49.8580 C   0  0  0  0  0  0  0  0  0  0  0  0
    9.3500   46.9630   52.4380 N   0  0  0  0  0  0  0  0  0  0  0  0
    7.2850   46.3300   53.0390 N   0  0  0  0  0  0  0  0  0  0  0  0
    0.9240   44.3050   54.6110 C   0  0  0  0  0  0  0  0  0  0  0  0
  2 33  4  0
  3 10  1  0
  4 19  1  0
  5  9  4  0
  6  9  1  0
  6 34  1  0
  6 35  1  0
  7  4  1  0
  8 28  4  0
  8 11  4  0
 11 17  4  0
 12 27  1  0
 12 15  1  0
 13  1  2  0
 14 11  1  0
 14 21  1  0
 15 13  1  0
 15 23  1  0
 16 32  1  0
 16 26  1  0
 16  7  1  0
 17 33  4  0
 18 10  1  0
 18 13  1  0
 19 29  1  0
 20 25  1  0
 20  9  4  0
 21 31  4  0
 21  5  4  0
 22 36  1  0
 26 22  1  0
 28  2  4  0
 30 32  2  0
 31 20  4  0
 32 24  1  0
 34  3  1  0
 35 18  1  0
 35 27  1  0
 36 19  1  0
M  END
$$$$

     RDKit          3D

 18 19  0  0  0  0  0  0  0  0999 V2000
    7.0570   44.9560   50.4630 S   0  0  0  0  0  0  0  0  0  0  0  0
    9.5150   45.0020   50.5990 C   0  0  0  0  0  0  0  0  0  0  0  0
    9.7470   46.9890   53.1400 C   0  0  0  0  0  0  0  0  0  0  0  0
    5.8480   41.8180   49.7500 C   0  0  0  0  0  0  0  0  0  0  0  0
    7.6220   42.7820   48.5490 N   0  0  0  0  0  0  0  0  0  0  0  0
    6.4880   42.0750   48.5410 C   0  0  0  0  0  0  0  0  0  0  0  0
    6.5550   46.2820   53.4950 O   0  0  0  0  0  0  0  0  0  0  0  0
    8.4760   45.5690   51.2110 C   0  0  0  0  0  0  0  0  0  0  0  0
    7.3290   47.0330   52.8870 C   0  0  0  0  0  0  0  0  0  0  0  0
    4.0210   40.6490   48.6200 C   0  0  0  0  0  0  0  0  0  0  0  0
   10.7960   45.2340   50.7370 N   0  0  0  0  0  0  0  0  0  0  0  0
    5.8610   41.6560   47.3820 C   0  0  0  0  0  0  0  0  0  0  0  0
    8.5800   46.5120   52.3180 N   0  0  0  0  0  0  0  0  0  0  0  0
    4.6590   40.9130   47.3810 C   0  0  0  0  0  0  0  0  0  0  0  0
    4.6560   41.1220   49.8360 C   0  0  0  0  0  0  0  0  0  0  0  0
    9.0980   43.9480   49.6140 N   0  0  0  0  0  0  0  0  0  0  0  0
    7.2180   48.2550   52.7690 O   0  0  0  0  0  0  0  0  0  0  0  0
    7.8990   43.7750   49.4400 C   0  0  0  0  0  0  0  0  0  0  0  0
  1  8  1  0
  2 11  2  0
  2  8  1  0
  4 15  4  0
  5 18  1  0
  6  5  1  0
  6  4  4  0
  8 13  1  0
  9  7  1  0
 10 15  4  0
 12  6  4  0
 13  9  1  0
 13  3  1  0
 14 12  4  0
 14 10  4  0
 16  2  1  0
 17  9  2  0
 18 16  2  0
 18  1  1  0
M  END
$$$$

     RDKit          3D

 23 24  0  0  0  0  0  0  0  0999 V2000
    2.5580   47.0920   52.4520 N   0  0  0  0  0  0  0  0  0  0  0  0
    6.4100   42.0590   48.5570 C   0  0  0  0  0  0  0  0  0  0  0  0
    9.0430   43.9480   49.5030 N   0  0  0  0  0  0  0  0  0  0  0  0
    3.9730   46.9560   52.2520 C   0  0  0  0  0  0  0  0  0  0  0  0
    5.8600   41.8310   49.8330 C   0  0  0  0  0  0  0  0  0  0  0  0
    7.5940   42.7670   48.5130 N   0  0  0  0  0  0  0  0  0  0  0  0
    5.7390   45.8460   53.3260 N   0  0  0  0  0  0  0  0  0  0  0  0
    6.8110   45.0930   50.9150 S   0  0  0  0  0  0  0  0  0  0  0  0
    4.6560   41.0750   49.8190 C   0  0  0  0  0  0  0  0  0  0  0  0
    9.6950   47.0190   52.4630 O   0  0  0  0  0  0  0  0  0  0  0  0
    1.9020   46.0330   52.8540 C   0  0  0  0  0  0  0  0  0  0  0  0
    9.4680   44.8510   50.4730 C   0  0  0  0  0  0  0  0  0  0  0  0
    8.6040   46.3660   52.2210 C   0  0  0  0  0  0  0  0  0  0  0  0
    4.6930   40.9380   47.3530 C   0  0  0  0  0  0  0  0  0  0  0  0
    3.7670   45.4070   54.2990 C   0  0  0  0  0  0  0  0  0  0  0  0
   10.7740   45.2050   50.7340 N   0  0  0  0  0  0  0  0  0  0  0  0
    8.4760   45.5260   51.0920 C   0  0  0  0  0  0  0  0  0  0  0  0
    7.5090   46.8240   52.5990 N   0  0  0  0  0  0  0  0  0  0  0  0
    2.5160   45.1270   53.9700 C   0  0  0  0  0  0  0  0  0  0  0  0
    4.0710   40.6460   48.6030 C   0  0  0  0  0  0  0  0  0  0  0  0
    4.4670   46.4030   53.4740 C   0  0  0  0  0  0  0  0  0  0  0  0
    6.5640   45.9680   52.3230 C   0  0  0  0  0  0  0  0  0  0  0  0
    5.8350   41.6140   47.4080 C   0  0  0  0  0  0  0  0  0  0  0  0
  1 11  1  0
  2  5  4  0
  3 12  2  0
  4  1  1  0
  4 21  1  0
  6  2  1  0
  8 17  1  0
  8 22  1  0
  9  5  4  0
 11 19  2  0
 12 16  1  0
 13 10  2  0
 13 18  1  0
 14 23  4  0
 14 20  4  0
 17 12  1  0
 17 13  1  0
 19 15  1  0
 20  9  4  0
 21  7  1  0
 21 15  1  0
 22 18  2  0
 22  7  1  0
 23  2  4  0
M  END
$$$$

     RDKit          3D

 27 29  0  0  0  0  0  0  0  0999 V2000
    4.6400   41.0720   49.7740 C   0  0  0  0  0  0  0  0  0  0  0  0
    9.0910   43.9330   49.5800 N   0  0  0  0  0  0  0  0  0  0  0  0
    5.6400   45.2200   54.3320 C   0  0  0  0  0  0  0  0  0  0  0  0
    7.1310   47.0310   52.5480 C   0  0  0  0  0  0  0  0  0  0  0  0
    4.0470   40.6670   48.6390 C   0  0  0  0  0  0  0  0  0  0  0  0
    9.4780   44.8670   50.4410 C   0  0  0  0  0  0  0  0  0  0  0  0
   10.7420   45.2010   50.7570 N   0  0  0  0  0  0  0  0  0  0  0  0
    7.0240   44.7890   50.3460 S   0  0  0  0  0  0  0  0  0  0  0  0
    7.5960   42.7560   48.5070 N   0  0  0  0  0  0  0  0  0  0  0  0
    6.0330   46.3190   52.4430 N   0  0  0  0  0  0  0  0  0  0  0  0
    3.0880   46.0190   51.9440 C   0  0  0  0  0  0  0  0  0  0  0  0
    1.5710   44.8810   53.0950 C   0  0  0  0  0  0  0  0  0  0  0  0
    8.4120   46.6140   51.9480 C   0  0  0  0  0  0  0  0  0  0  0  0
    4.5570   44.7370   55.1700 C   0  0  0  0  0  0  0  0  0  0  0  0
    5.0440   46.2580   53.3980 C   0  0  0  0  0  0  0  0  0  0  0  0
    7.8310   43.7530   49.3930 C   0  0  0  0  0  0  0  0  0  0  0  0
    9.4730   46.9040   52.4210 O   0  0  0  0  0  0  0  0  0  0  0  0
    8.3720   45.5390   51.0390 C   0  0  0  0  0  0  0  0  0  0  0  0
    3.6890   45.6860   53.0970 C   0  0  0  0  0  0  0  0  0  0  0  0
    1.7430   45.6190   51.9300 C   0  0  0  0  0  0  0  0  0  0  0  0
    6.4020   42.0870   48.5690 C   0  0  0  0  0  0  0  0  0  0  0  0
    2.7850   44.8400   53.8390 C   0  0  0  0  0  0  0  0  0  0  0  0
    7.1990   48.0220   53.3380 N   0  0  0  0  0  0  0  0  0  0  0  0
    5.8550   41.6160   47.3970 C   0  0  0  0  0  0  0  0  0  0  0  0
    3.7930   46.7620   50.5770 Cl  0  0  0  0  0  0  0  0  0  0  0  0
    5.8390   41.8210   49.8230 C   0  0  0  0  0  0  0  0  0  0  0  0
    4.6560   40.9190   47.4250 C   0  0  0  0  0  0  0  0  0  0  0  0
  1 26  4  0
  2  6  4  0
  3 14  1  0
  4 23  2  0
  5  1  4  0
  6  7  1  0
  6 18  4  0
  8 18  4  0
  9 21  1  0
  9 16  1  0
 10  4  1  0
 10 15  1  0
 11 19  1  0
 12 22  2  0
 13 17  2  0
 13  4  1  0
 15  3  1  0
 16  2  4  0
 16  8  4  0
 18 13  1  0
 19 15  1  0
 19 22  1  0
 20 11  2  0
 20 12  1  0
 21 26  4  0
 24 27  4  0
 24 21  4  0
 25 11  1  0
 27  5  4  0
M  END
$$$$

     RDKit          3D

 36 40  0  0  0  0  0  0  0  0999 V2000
    2.8170   39.9330   48.4350 C   0  0  0  0  0  0  0  0  0  0  0  0
    0.4850   43.5780   50.9350 C   0  0  0  0  0  0  0  0  0  0  0  0
    7.9050   43.7020   49.3850 C   0  0  0  0  0  0  0  0  0  0  0  0
    7.6090   42.7660   48.5240 N   0  0  0  0  0  0  0  0  0  0  0  0
    9.1410   43.9750   49.6560 N   0  0  0  0  0  0  0  0  0  0  0  0
    7.5300   47.8690   54.8590 N   0  0  0  0  0  0  0  0  0  0  0  0
    8.7480   45.9320   51.6140 C   0  0  0  0  0  0  0  0  0  0  0  0
    1.0380   44.8800   52.9050 N   0  0  0  0  0  0  0  0  0  0  0  0
    7.4730   46.0740   51.9120 C   0  0  0  0  0  0  0  0  0  0  0  0
    4.5580   41.0660   49.8210 C   0  0  0  0  0  0  0  0  0  0  0  0
    5.9130   47.0690   53.7480 N   0  0  0  0  0  0  0  0  0  0  0  0
    2.4940   39.4740   47.0020 N   0  0  0  0  0  0  0  0  0  0  0  0
    3.9960   45.5840   54.5480 C   0  0  0  0  0  0  0  0  0  0  0  0
    3.2420   46.5720   50.4930 Cl  0  0  0  0  0  0  0  0  0  0  0  0
    6.8660   44.6720   50.2080 S   0  0  0  0  0  0  0  0  0  0  0  0
    6.2820   47.7110   54.8580 C   0  0  0  0  0  0  0  0  0  0  0  0
    2.2710   46.0510   53.1110 C   0  0  0  0  0  0  0  0  0  0  0  0
    5.8540   41.6390   47.4250 C   0  0  0  0  0  0  0  0  0  0  0  0
    9.6960   46.6450   52.3160 N   0  0  0  0  0  0  0  0  0  0  0  0
    2.6730   45.3590   51.7970 C   0  0  0  0  0  0  0  0  0  0  0  0
    8.0740   47.3400   53.7630 C   0  0  0  0  0  0  0  0  0  0  0  0
   -0.4000   45.5190   52.8890 C   0  0  0  0  0  0  0  0  0  0  0  0
    9.4950   44.9890   50.5840 C   0  0  0  0  0  0  0  0  0  0  0  0
    6.5190   42.0070   48.5940 C   0  0  0  0  0  0  0  0  0  0  0  0
    4.7000   40.9410   47.4290 C   0  0  0  0  0  0  0  0  0  0  0  0
    3.3130   47.2810   53.1800 C   0  0  0  0  0  0  0  0  0  0  0  0
    5.7760   41.6910   49.8330 C   0  0  0  0  0  0  0  0  0  0  0  0
    1.5720   44.1910   51.8010 C   0  0  0  0  0  0  0  0  0  0  0  0
   10.7720   45.2170   50.7770 N   0  0  0  0  0  0  0  0  0  0  0  0
    4.6130   46.7140   53.7360 C   0  0  0  0  0  0  0  0  0  0  0  0
    4.8270   44.5460   55.2370 C   0  0  0  0  0  0  0  0  0  0  0  0
    9.4090   47.3470   53.3960 C   0  0  0  0  0  0  0  0  0  0  0  0
    2.6260   45.5530   54.4310 C   0  0  0  0  0  0  0  0  0  0  0  0
    4.0300   40.6360   48.5960 C   0  0  0  0  0  0  0  0  0  0  0  0
    7.0330   46.7780   53.1770 C   0  0  0  0  0  0  0  0  0  0  0  0
    1.7210   45.2840   55.4370 C   0  0  0  0  0  0  0  0  0  0  0  0
  1 34  1  0
  3  5  1  0
  3 15  2  0
  4 24  1  0
  4  3  1  0
  5 23  1  0
  7  9  4  0
  7 19  4  0
  8 17  1  0
  9 35  4  0
 10 27  4  0
 11 16  4  0
 12  1  1  0
 13 31  1  0
 16  6  4  0
 17 26  1  0
 17 33  1  0
 18 25  4  0
 18 24  4  0
 19 32  4  0
 20 14  1  0
 20 28  1  0
 20 17  1  0
 21  6  4  0
 22  8  1  0
 23 29  2  0
 23  7  1  0
 24 27  4  0
 25 34  4  0
 26 30  1  0
 28  2  1  0
 28  8  1  0
 30 11  1  0
 30 13  2  0
 32 21  4  0
 33 13  1  0
 33 36  1  0
 34 10  4  0
 35 11  4  0
 35 21  4  0
M  END
$$$$

     RDKit          3D

 27 31  0  0  0  0  0  0  0  0999 V2000
    8.8180   47.2870   52.6270 O   0  0  0  0  0  0  0  0  0  0  0  0
    2.8980   43.1050   50.9480 C   0  0  0  0  0  0  0  0  0  0  0  0
    4.0500   40.6560   48.6410 C   0  0  0  0  0  0  0  0  0  0  0  0
    7.9100   46.5790   52.0390 C   0  0  0  0  0  0  0  0  0  0  0  0
    4.6250   40.9000   47.4400 C   0  0  0  0  0  0  0  0  0  0  0  0
   10.7390   45.1920   50.7350 N   0  0  0  0  0  0  0  0  0  0  0  0
    9.0850   43.9510   49.5730 N   0  0  0  0  0  0  0  0  0  0  0  0
    2.0620   44.7280   51.4750 S   0  0  0  0  0  0  0  0  0  0  0  0
    6.4560   42.0470   48.5600 C   0  0  0  0  0  0  0  0  0  0  0  0
    5.8670   41.7830   49.8270 C   0  0  0  0  0  0  0  0  0  0  0  0
    4.6270   41.2070   49.8330 C   0  0  0  0  0  0  0  0  0  0  0  0
    7.8240   43.7550   49.3230 C   0  0  0  0  0  0  0  0  0  0  0  0
    6.7520   48.2600   53.3640 N   0  0  0  0  0  0  0  0  0  0  0  0
    7.6120   42.7580   48.4850 N   0  0  0  0  0  0  0  0  0  0  0  0
    5.0930   46.2870   54.3130 C   0  0  0  0  0  0  0  0  0  0  0  0
    6.8450   44.8510   50.2620 S   0  0  0  0  0  0  0  0  0  0  0  0
    4.3310   46.1190   52.2300 C   0  0  0  0  0  0  0  0  0  0  0  0
    3.0360   45.1620   53.9870 C   0  0  0  0  0  0  0  0  0  0  0  0
    3.6690   41.6930   50.9790 C   0  0  0  0  0  0  0  0  0  0  0  0
    8.1850   45.5870   51.0560 C   0  0  0  0  0  0  0  0  0  0  0  0
    5.8660   41.6620   47.4010 C   0  0  0  0  0  0  0  0  0  0  0  0
    6.5370   46.9710   52.6230 N   0  0  0  0  0  0  0  0  0  0  0  0
    8.1270   48.2000   53.3690 C   0  0  0  0  0  0  0  0  0  0  0  0
    5.3300   46.4160   52.9940 C   0  0  0  0  0  0  0  0  0  0  0  0
    3.2160   45.4620   52.6060 C   0  0  0  0  0  0  0  0  0  0  0  0
    4.1090   45.5620   54.9170 C   0  0  0  0  0  0  0  0  0  0  0  0
    9.4460   44.9030   50.4450 C   0  0  0  0  0  0  0  0  0  0  0  0
  1 23  1  0
  2 19  1  0
  2  8  1  0
  3 11  4  0
  4 22  1  0
  4  1  1  0
  5  3  4  0
  7 27  1  0
  8 25  1  0
  9 10  4  0
 10 11  4  0
 11 19  1  0
 12  7  2  0
 12 16  1  0
 13 23  1  0
 14  9  1  0
 14 12  1  0
 15 26  4  0
 16 20  1  0
 17 25  4  0
 17 24  4  0
 18 26  4  0
 20  4  2  0
 21  5  4  0
 21  9  4  0
 22 24  1  0
 22 13  1  0
 24 15  4  0
 25 18  4  0
 27  6  1  0
 27 20  1  0
M  END
$$$$

     RDKit          3D

 18 20  0  0  0  0  0  0  0  0999 V2000
    7.5780   42.7930   48.5000 N   0  0  0  0  0  0  0  0  0  0  0  0
    4.6520   41.0690   49.8170 C   0  0  0  0  0  0  0  0  0  0  0  0
    9.0810   46.7790   52.1700 N   0  0  0  0  0  0  0  0  0  0  0  0
    5.8510   41.6570   47.3950 C   0  0  0  0  0  0  0  0  0  0  0  0
    8.2560   47.4350   52.9380 C   0  0  0  0  0  0  0  0  0  0  0  0
    9.4290   45.0010   50.4890 C   0  0  0  0  0  0  0  0  0  0  0  0
    6.4290   42.0690   48.6040 C   0  0  0  0  0  0  0  0  0  0  0  0
    7.8160   43.7980   49.4600 C   0  0  0  0  0  0  0  0  0  0  0  0
    6.4890   44.6060   50.1780 S   0  0  0  0  0  0  0  0  0  0  0  0
    5.8340   41.7910   49.8120 C   0  0  0  0  0  0  0  0  0  0  0  0
    6.8550   47.4050   52.7790 C   0  0  0  0  0  0  0  0  0  0  0  0
   10.8090   45.1570   50.7520 N   0  0  0  0  0  0  0  0  0  0  0  0
    9.1100   43.9310   49.5600 N   0  0  0  0  0  0  0  0  0  0  0  0
    6.3450   46.6250   51.9050 N   0  0  0  0  0  0  0  0  0  0  0  0
    8.5410   45.8740   51.3510 C   0  0  0  0  0  0  0  0  0  0  0  0
    4.6650   40.9310   47.4290 C   0  0  0  0  0  0  0  0  0  0  0  0
    7.1690   45.8080   51.2020 C   0  0  0  0  0  0  0  0  0  0  0  0
    4.0530   40.7030   48.6210 C   0  0  0  0  0  0  0  0  0  0  0  0
  1  7  1  0
  1  8  1  0
  3  5  4  0
  4 16  4  0
  4  7  4  0
  6 12  1  0
  6 15  1  0
  7 10  4  0
  8 13  2  0
  8  9  1  0
  9 17  1  0
 10  2  4  0
 11  5  4  0
 13  6  1  0
 14 11  4  0
 15  3  4  0
 16 18  4  0
 17 15  4  0
 17 14  4  0
 18  2  4  0
M  END
$$$$

     RDKit          3D

 28 31  0  0  0  0  0  0  0  0999 V2000
    7.6320   46.8620   53.1400 C   0  0  0  0  0  0  0  0  0  0  0  0
    4.6380   41.1120   49.8260 C   0  0  0  0  0  0  0  0  0  0  0  0
    5.8140   41.6510   47.3840 C   0  0  0  0  0  0  0  0  0  0  0  0
    0.6580   45.3310   52.6250 C   0  0  0  0  0  0  0  0  0  0  0  0
    4.6850   40.9040   47.4150 C   0  0  0  0  0  0  0  0  0  0  0  0
    2.8090   46.2050   54.3850 C   0  0  0  0  0  0  0  0  0  0  0  0
    8.4450   45.6160   51.3720 C   0  0  0  0  0  0  0  0  0  0  0  0
    9.1130   44.0230   49.5100 N   0  0  0  0  0  0  0  0  0  0  0  0
    8.0260   43.9070   48.9670 C   0  0  0  0  0  0  0  0  0  0  0  0
    3.0400   45.9520   52.8700 C   0  0  0  0  0  0  0  0  0  0  0  0
    5.8360   41.8340   49.8100 C   0  0  0  0  0  0  0  0  0  0  0  0
    4.3480   46.0990   52.4910 C   0  0  0  0  0  0  0  0  0  0  0  0
    5.1780   46.7770   53.2390 N   0  0  0  0  0  0  0  0  0  0  0  0
    7.6180   42.8080   48.4670 N   0  0  0  0  0  0  0  0  0  0  0  0
    0.7050   44.9610   54.0340 C   0  0  0  0  0  0  0  0  0  0  0  0
    6.4840   42.0560   48.6010 C   0  0  0  0  0  0  0  0  0  0  0  0
    7.2440   45.2930   50.9170 N   0  0  0  0  0  0  0  0  0  0  0  0
    4.0380   40.6880   48.5990 C   0  0  0  0  0  0  0  0  0  0  0  0
    6.2010   45.7580   51.6650 C   0  0  0  0  0  0  0  0  0  0  0  0
    4.9020   45.4900   51.4600 N   0  0  0  0  0  0  0  0  0  0  0  0
   10.7970   45.1900   50.7580 N   0  0  0  0  0  0  0  0  0  0  0  0
    2.0640   44.9620   54.8230 C   0  0  0  0  0  0  0  0  0  0  0  0
    6.3630   46.5200   52.7170 C   0  0  0  0  0  0  0  0  0  0  0  0
    8.6490   46.3830   52.4580 N   0  0  0  0  0  0  0  0  0  0  0  0
    9.4840   44.9330   50.5250 C   0  0  0  0  0  0  0  0  0  0  0  0
   10.2020   46.7970   53.1580 Cl  0  0  0  0  0  0  0  0  0  0  0  0
    1.9780   45.4550   51.7990 C   0  0  0  0  0  0  0  0  0  0  0  0
    7.7590   47.8690   54.6520 Cl  0  0  0  0  0  0  0  0  0  0  0  0
  1 28  1  0
  3  5  4  0
  3 16  4  0
  4 15  2  0
  5 18  4  0
  6 22  1  0
  7 25  1  0
  7 24  1  0
  8 25  1  0
  9  8  1  0
 10 12  1  0
 10  6  1  0
 11  2  4  0
 12 13  4  0
 14 16  1  0
 14  9  1  0
 15 22  1  0
 16 11  4  0
 17  7  1  0
 17 19  2  0
 18  2  4  0
 19 23  4  0
 20 19  4  0
 20 12  4  0
 23  1  2  0
 23 13  4  0
 24  1  1  0
 24 26  1  0
 25 21  2  0
 27  4  1  0
 27 10  1  0
M  END
$$$$

     RDKit          3D

 36 39  0  0  0  0  0  0  0  0999 V2000
    4.4040   44.0820   53.5990 O   0  0  0  0  0  0  0  0  0  0  0  0
    2.1700   43.7240   53.1220 N   0  0  0  0  0  0  0  0  0  0  0  0
    3.4500   45.5160   52.0860 C   0  0  0  0  0  0  0  0  0  0  0  0
    7.1840   46.8840   53.4940 C   0  0  0  0  0  0  0  0  0  0  0  0
    4.6730   40.9270   47.3790 C   0  0  0  0  0  0  0  0  0  0  0  0
    7.6270   42.7820   48.5630 N   0  0  0  0  0  0  0  0  0  0  0  0
    1.6590   43.7540   51.1700 C   0  0  0  0  0  0  0  0  0  0  0  0
    7.2720   47.2650   54.8730 N   0  0  0  0  0  0  0  0  0  0  0  0
    7.8300   43.7910   49.5090 C   0  0  0  0  0  0  0  0  0  0  0  0
    3.1390   46.7850   52.7340 C   0  0  0  0  0  0  0  0  0  0  0  0
    7.1020   45.4690   51.0070 C   0  0  0  0  0  0  0  0  0  0  0  0
    8.3600   46.7560   52.7500 C   0  0  0  0  0  0  0  0  0  0  0  0
    4.0670   40.6250   48.6240 C   0  0  0  0  0  0  0  0  0  0  0  0
    9.5360   47.2950   53.0910 C   0  0  0  0  0  0  0  0  0  0  0  0
    2.6690   47.6670   51.9830 O   0  0  0  0  0  0  0  0  0  0  0  0
    7.0140   44.4200   50.1520 N   0  0  0  0  0  0  0  0  0  0  0  0
    2.1290   44.8340   52.0830 C   0  0  0  0  0  0  0  0  0  0  0  0
    5.8530   41.6860   49.8030 C   0  0  0  0  0  0  0  0  0  0  0  0
   10.7620   45.2270   50.6950 N   0  0  0  0  0  0  0  0  0  0  0  0
    3.8170   47.7750   54.9950 C   0  0  0  0  0  0  0  0  0  0  0  0
    2.0330   42.6600   52.1390 C   0  0  0  0  0  0  0  0  0  0  0  0
    5.9020   41.6190   47.3460 C   0  0  0  0  0  0  0  0  0  0  0  0
    4.7550   44.5340   54.9450 C   0  0  0  0  0  0  0  0  0  0  0  0
    6.4360   42.0550   48.6320 C   0  0  0  0  0  0  0  0  0  0  0  0
    3.1300   46.8250   54.2080 N   0  0  0  0  0  0  0  0  0  0  0  0
    8.4020   46.0290   51.4530 C   0  0  0  0  0  0  0  0  0  0  0  0
    4.5530   44.5920   50.3930 O   0  0  0  0  0  0  0  0  0  0  0  0
    9.0900   43.9770   49.5520 N   0  0  0  0  0  0  0  0  0  0  0  0
    6.0130   46.9550   52.6940 C   0  0  0  0  0  0  0  0  0  0  0  0
    2.5160   45.8590   55.1230 C   0  0  0  0  0  0  0  0  0  0  0  0
    9.9030   45.9640   51.4170 C   0  0  0  0  0  0  0  0  0  0  0  0
    5.8840   45.8450   51.6750 N   0  0  0  0  0  0  0  0  0  0  0  0
    4.7020   41.0890   49.7960 C   0  0  0  0  0  0  0  0  0  0  0  0
    3.5290   44.9960   55.7760 C   0  0  0  0  0  0  0  0  0  0  0  0
   10.4080   46.8100   52.2540 N   0  0  0  0  0  0  0  0  0  0  0  0
    4.6830   45.2710   51.3440 C   0  0  0  0  0  0  0  0  0  0  0  0
  1 23  1  0
  3 36  1  0
  3 10  1  0
  4  8  1  0
  5 13  4  0
  6 24  1  0
  6  9  1  0
  7 17  1  0
  7 21  1  0
  9 28  2  0
  9 16  1  0
 10 25  1  0
 11 32  1  0
 12 14  1  0
 12  4  1  0
 13 33  4  0
 15 10  2  0
 16 11  2  3
 17  3  1  0
 17  2  1  0
 21  2  1  0
 22  5  4  0
 22 24  4  0
 23 34  1  0
 24 18  4  0
 25 20  1  0
 25 30  1  0
 26 11  1  0
 26 12  1  0
 27 36  2  0
 29  4  1  0
 30 34  1  0
 31 19  1  0
 31 26  1  0
 31 35  1  0
 32 29  1  0
 33 18  4  0
 35 14  1  0
 36 32  1  0
M  END
$$$$

     RDKit          3D

 27 29  0  0  0  0  0  0  0  0999 V2000
    4.6660   40.9130   47.4130 C   0  0  0  0  0  0  0  0  0  0  0  0
    4.0550   45.5020   53.2740 C   0  0  0  0  0  0  0  0  0  0  0  0
    5.0850   47.6680   53.2420 N   0  0  0  0  0  0  0  0  0  0  0  0
    6.4480   42.1000   48.5810 C   0  0  0  0  0  0  0  0  0  0  0  0
    8.3820   45.6300   51.3060 C   0  0  0  0  0  0  0  0  0  0  0  0
    5.8650   41.6350   47.4330 C   0  0  0  0  0  0  0  0  0  0  0  0
    5.5450   45.3460   53.3940 C   0  0  0  0  0  0  0  0  0  0  0  0
   10.8150   45.1270   50.7610 N   0  0  0  0  0  0  0  0  0  0  0  0
    4.6680   41.0940   49.8230 C   0  0  0  0  0  0  0  0  0  0  0  0
    3.5610   45.1920   51.9470 C   0  0  0  0  0  0  0  0  0  0  0  0
    8.5000   46.4760   52.4980 C   0  0  0  0  0  0  0  0  0  0  0  0
    3.8430   46.9260   53.6870 C   0  0  0  0  0  0  0  0  0  0  0  0
    7.4000   46.9590   53.1660 N   0  0  0  0  0  0  0  0  0  0  0  0
    5.8520   41.7610   49.7900 C   0  0  0  0  0  0  0  0  0  0  0  0
    6.4740   44.7650   49.6380 S   0  0  0  0  0  0  0  0  0  0  0  0
    9.4250   44.9100   50.4840 C   0  0  0  0  0  0  0  0  0  0  0  0
    3.1910   44.1390   51.4740 O   0  0  0  0  0  0  0  0  0  0  0  0
    9.0620   43.9480   49.5960 N   0  0  0  0  0  0  0  0  0  0  0  0
    7.0600   45.6150   50.9420 C   0  0  0  0  0  0  0  0  0  0  0  0
    7.6280   42.7590   48.4760 N   0  0  0  0  0  0  0  0  0  0  0  0
    3.1600   46.5260   50.8280 Cl  0  0  0  0  0  0  0  0  0  0  0  0
    3.4260   44.5430   54.3510 C   0  0  0  0  0  0  0  0  0  0  0  0
    1.9800   44.9250   54.7330 C   0  0  0  0  0  0  0  0  0  0  0  0
    4.0550   40.6310   48.6160 C   0  0  0  0  0  0  0  0  0  0  0  0
    9.5850   46.7230   52.9790 O   0  0  0  0  0  0  0  0  0  0  0  0
    7.8160   43.8680   49.2800 C   0  0  0  0  0  0  0  0  0  0  0  0
    6.0890   46.7610   53.2580 C   0  0  0  0  0  0  0  0  0  0  0  0
  1  6  4  0
  1 24  4  0
  2  7  1  0
  2 12  1  0
  2 22  1  0
  3 27  2  0
  3 12  1  0
  4 14  4  0
  5 11  1  0
  6  4  4  0
 10  2  1  0
 11 25  2  0
 11 13  1  0
 13 27  1  0
 14  9  4  0
 15 19  1  0
 16  8  1  0
 16  5  1  0
 17 10  2  0
 18 16  1  0
 19  5  2  0
 20  4  1  0
 20 26  1  0
 21 10  1  0
 22 23  1  0
 24  9  4  0
 26 18  2  0
 26 15  1  0
 27  7  1  0
M  END
$$$$

     RDKit          3D

 18 21  0  0  0  0  0  0  0  0999 V2000
    9.0890   43.9070   49.5500 N   0  0  0  0  0  0  0  0  0  0  0  0
    7.9780   46.4690   52.0840 C   0  0  0  0  0  0  0  0  0  0  0  0
    4.6730   41.1280   49.8260 C   0  0  0  0  0  0  0  0  0  0  0  0
    6.4200   42.0800   48.6110 C   0  0  0  0  0  0  0  0  0  0  0  0
    5.8650   41.7960   49.8230 C   0  0  0  0  0  0  0  0  0  0  0  0
    8.2220   45.4630   51.0470 C   0  0  0  0  0  0  0  0  0  0  0  0
    7.8370   43.7650   49.4090 C   0  0  0  0  0  0  0  0  0  0  0  0
    7.6430   47.8900   53.1470 N   0  0  0  0  0  0  0  0  0  0  0  0
    4.6520   40.8780   47.3940 C   0  0  0  0  0  0  0  0  0  0  0  0
    6.7970   44.7950   50.3030 S   0  0  0  0  0  0  0  0  0  0  0  0
    7.5970   42.7320   48.5050 N   0  0  0  0  0  0  0  0  0  0  0  0
    8.7740   47.2940   52.8770 C   0  0  0  0  0  0  0  0  0  0  0  0
    5.8360   41.6290   47.4170 C   0  0  0  0  0  0  0  0  0  0  0  0
    9.4650   44.9650   50.5320 C   0  0  0  0  0  0  0  0  0  0  0  0
   10.0370   47.3470   53.1740 N   0  0  0  0  0  0  0  0  0  0  0  0
    6.8020   47.0280   52.3670 N   0  0  0  0  0  0  0  0  0  0  0  0
    4.0380   40.7000   48.6090 C   0  0  0  0  0  0  0  0  0  0  0  0
   10.8050   45.1720   50.7630 N   0  0  0  0  0  0  0  0  0  0  0  0
  1 14  4  0
  2  6  1  0
  2 16  1  0
  2 12  1  0
  2  8  1  0
  4  5  4  0
  5  3  4  0
  7  1  4  0
  7 10  4  0
  9 13  4  0
  9 17  4  0
 10  6  4  0
 11  4  1  0
 11  7  1  0
 12  8  1  0
 12 15  2  0
 13  4  4  0
 14 18  1  0
 14  6  4  0
 16  8  1  0
 17  3  4  0
M  END
$$$$

     RDKit          3D

 27 27  0  0  0  0  0  0  0  0999 V2000
    7.7440   46.2770   51.8540 C   0  0  0  0  0  0  0  0  0  0  0  0
    7.8000   43.4760   49.3800 N   0  0  0  0  0  0  0  0  0  0  0  0
    7.8880   45.0950   50.9390 C   0  0  0  0  0  0  0  0  0  0  0  0
    9.0830   43.9730   49.5410 N   0  0  0  0  0  0  0  0  0  0  0  0
    5.2940   45.0290   50.9600 N   0  0  0  0  0  0  0  0  0  0  0  0
    3.8770   45.1220   54.5580 C   0  0  0  0  0  0  0  0  0  0  0  0
    9.3610   44.8480   50.4220 C   0  0  0  0  0  0  0  0  0  0  0  0
    4.6530   41.1040   49.7760 C   0  0  0  0  0  0  0  0  0  0  0  0
    4.2740   45.6340   51.7370 C   0  0  0  0  0  0  0  0  0  0  0  0
    6.4430   46.4800   52.4040 C   0  0  0  0  0  0  0  0  0  0  0  0
    5.8470   41.6680   47.4370 C   0  0  0  0  0  0  0  0  0  0  0  0
    5.8460   41.7730   49.8190 C   0  0  0  0  0  0  0  0  0  0  0  0
    3.0560   43.6140   52.3350 C   0  0  0  0  0  0  0  0  0  0  0  0
    3.0310   45.9330   51.2870 C   0  0  0  0  0  0  0  0  0  0  0  0
    7.6060   42.8040   48.5490 N   0  0  0  0  0  0  0  0  0  0  0  0
    6.3460   47.3490   53.4500 C   0  0  0  0  0  0  0  0  0  0  0  0
    7.6190   47.8950   53.8750 N   0  0  0  0  0  0  0  0  0  0  0  0
    4.0900   40.6730   48.5800 C   0  0  0  0  0  0  0  0  0  0  0  0
   10.7590   45.2700   50.7380 N   0  0  0  0  0  0  0  0  0  0  0  0
   10.1480   47.0880   53.3360 O   0  0  0  0  0  0  0  0  0  0  0  0
    8.7920   47.3540   53.2810 C   0  0  0  0  0  0  0  0  0  0  0  0
    8.9070   46.5150   52.1230 N   0  0  0  0  0  0  0  0  0  0  0  0
    5.4830   45.7020   51.6810 C   0  0  0  0  0  0  0  0  0  0  0  0
    4.7440   40.9620   47.4120 C   0  0  0  0  0  0  0  0  0  0  0  0
    6.4490   42.0750   48.6150 C   0  0  0  0  0  0  0  0  0  0  0  0
    4.0240   44.6820   52.8930 C   0  0  0  0  0  0  0  0  0  0  0  0
    3.2850   45.9170   55.1840 N   0  0  0  0  0  0  0  0  0  0  0  0
  1 22  4  0
  1 10  4  0
  2  4  1  0
  3  1  1  0
  4  7  1  0
  5 23  2  0
  6 27  2  0
  7 19  2  0
  7  3  1  0
  8 12  4  0
 10 16  4  0
 11 25  4  0
 13 26  1  0
 14  9  2  0
 15 25  1  0
 15  2  2  3
 16 17  4  0
 18  8  4  0
 21 20  2  0
 21 17  4  0
 22 21  4  0
 23  9  1  0
 23 10  1  0
 24 11  4  0
 24 18  4  0
 25 12  4  0
 26  6  1  0
M  END
$$$$

     RDKit          3D

 36 40  0  0  0  0  0  0  0  0999 V2000
    6.4450   46.2900   54.1350 C   0  0  0  0  0  0  0  0  0  0  0  0
    7.5740   42.7700   48.5070 N   0  0  0  0  0  0  0  0  0  0  0  0
    5.6590   47.2450   54.8760 C   0  0  0  0  0  0  0  0  0  0  0  0
   -0.8220   43.8680   52.6160 C   0  0  0  0  0  0  0  0  0  0  0  0
    9.4870   44.8720   50.4000 C   0  0  0  0  0  0  0  0  0  0  0  0
    7.7550   46.7650   53.8350 N   0  0  0  0  0  0  0  0  0  0  0  0
    4.6370   41.1240   49.8180 C   0  0  0  0  0  0  0  0  0  0  0  0
    0.2430   44.7290   55.8770 O   0  0  0  0  0  0  0  0  0  0  0  0
    0.0950   44.6730   54.6580 C   0  0  0  0  0  0  0  0  0  0  0  0
    3.1630   45.3680   52.8260 C   0  0  0  0  0  0  0  0  0  0  0  0
    6.4300   42.0970   48.5420 C   0  0  0  0  0  0  0  0  0  0  0  0
    4.0300   40.6310   48.6230 C   0  0  0  0  0  0  0  0  0  0  0  0
   -0.9370   44.3490   53.9450 O   0  0  0  0  0  0  0  0  0  0  0  0
    5.8440   41.6420   47.3860 C   0  0  0  0  0  0  0  0  0  0  0  0
    6.8900   44.6140   50.3660 S   0  0  0  0  0  0  0  0  0  0  0  0
    8.2260   46.6980   51.3960 N   0  0  0  0  0  0  0  0  0  0  0  0
    8.7130   47.4680   52.6400 S   0  0  0  0  0  0  0  0  0  0  0  0
    7.8670   43.6820   49.4180 C   0  0  0  0  0  0  0  0  0  0  0  0
    3.6140   44.1370   50.9190 O   0  0  0  0  0  0  0  0  0  0  0  0
    9.0530   43.9750   49.5330 N   0  0  0  0  0  0  0  0  0  0  0  0
    2.5410   45.7000   54.0980 C   0  0  0  0  0  0  0  0  0  0  0  0
    3.6990   46.5280   52.1800 O   0  0  0  0  0  0  0  0  0  0  0  0
    3.5550   46.0410   55.2580 C   0  0  0  0  0  0  0  0  0  0  0  0
    8.3420   45.4440   50.8470 C   0  0  0  0  0  0  0  0  0  0  0  0
   10.7820   45.2170   50.7620 N   0  0  0  0  0  0  0  0  0  0  0  0
    4.1190   43.2440   51.7580 C   0  0  0  0  0  0  0  0  0  0  0  0
    5.8860   41.7710   49.8010 C   0  0  0  0  0  0  0  0  0  0  0  0
   10.0640   47.1780   53.1160 O   0  0  0  0  0  0  0  0  0  0  0  0
    8.1530   48.7600   52.1820 O   0  0  0  0  0  0  0  0  0  0  0  0
    4.1950   47.1950   54.6020 N   0  0  0  0  0  0  0  0  0  0  0  0
    2.8740   44.0540   52.2130 C   0  0  0  0  0  0  0  0  0  0  0  0
    4.6080   40.9720   47.4160 C   0  0  0  0  0  0  0  0  0  0  0  0
    4.0260   47.5200   53.1740 C   0  0  0  0  0  0  0  0  0  0  0  0
    0.3810   44.2970   51.7580 C   0  0  0  0  0  0  0  0  0  0  0  0
    1.5630   43.4400   51.8810 C   0  0  0  0  0  0  0  0  0  0  0  0
    1.2760   45.0340   54.0310 N   0  0  0  0  0  0  0  0  0  0  0  0
  1  3  1  0
  2 11  1  0
  2 18  1  0
  4 13  1  0
  5 25  1  0
  5 24  1  0
  6  1  1  0
  9  8  2  0
 10 22  1  0
 10 21  1  0
 11 27  4  0
 12  7  4  0
 13  9  1  0
 14 32  4  0
 14 11  4  0
 15 24  1  0
 16 17  1  0
 17 28  2  0
 17  6  1  0
 18 20  2  0
 18 15  1  0
 19 26  1  0
 19 31  1  0
 20  5  1  0
 21 23  1  0
 22 33  1  0
 24 16  1  0
 27  7  4  0
 29 17  2  0
 30  3  1  0
 30 23  1  0
 31 26  1  0
 31 10  1  0
 32 12  4  0
 33 30  1  0
 34 35  1  0
 34  4  1  0
 35 31  1  0
 36 21  1  0
 36  9  1  0
M  END
$$$$

     RDKit          3D

 36 38  0  0  0  0  0  0  0  0999 V2000
    1.6140   44.2110   55.4400 F   0  0  0  0  0  0  0  0  0  0  0  0
    1.1380   44.7940   53.3560 C   0  0  0  0  0  0  0  0  0  0  0  0
    4.0240   47.5440   53.8960 C   0  0  0  0  0  0  0  0  0  0  0  0
    4.6590   40.9290   47.4030 C   0  0  0  0  0  0  0  0  0  0  0  0
    2.5240   45.3910   53.6930 N   0  0  0  0  0  0  0  0  0  0  0  0
    6.1690   45.0900   50.5270 N   0  0  0  0  0  0  0  0  0  0  0  0
    6.4020   42.1170   48.5710 C   0  0  0  0  0  0  0  0  0  0  0  0
    3.8670   41.0460   51.0430 C   0  0  0  0  0  0  0  0  0  0  0  0
    4.5190   45.5470   55.1910 C   0  0  0  0  0  0  0  0  0  0  0  0
   -0.5490   43.9600   52.0170 C   0  0  0  0  0  0  0  0  0  0  0  0
    6.1860   46.2620   51.3670 C   0  0  0  0  0  0  0  0  0  0  0  0
    4.6190   41.1240   49.8190 C   0  0  0  0  0  0  0  0  0  0  0  0
    7.3800   44.6950   50.2690 C   0  0  0  0  0  0  0  0  0  0  0  0
    0.6320   44.0930   54.5760 C   0  0  0  0  0  0  0  0  0  0  0  0
    9.7960   45.7620   51.4210 C   0  0  0  0  0  0  0  0  0  0  0  0
    2.7900   46.6950   53.3250 C   0  0  0  0  0  0  0  0  0  0  0  0
    7.8530   47.2740   52.6900 C   0  0  0  0  0  0  0  0  0  0  0  0
    7.8800   43.7590   49.3900 C   0  0  0  0  0  0  0  0  0  0  0  0
    8.3360   45.5470   51.0250 C   0  0  0  0  0  0  0  0  0  0  0  0
    7.1090   48.2380   53.0570 O   0  0  0  0  0  0  0  0  0  0  0  0
    9.4180   47.5010   54.5660 C   0  0  0  0  0  0  0  0  0  0  0  0
    0.3120   42.7620   54.3430 F   0  0  0  0  0  0  0  0  0  0  0  0
    5.8990   41.6610   47.3800 C   0  0  0  0  0  0  0  0  0  0  0  0
    4.0680   40.6700   48.6500 C   0  0  0  0  0  0  0  0  0  0  0  0
    5.7770   41.8200   49.8290 C   0  0  0  0  0  0  0  0  0  0  0  0
    4.5550   46.5000   54.1780 N   0  0  0  0  0  0  0  0  0  0  0  0
    9.1610   47.0860   53.2450 C   0  0  0  0  0  0  0  0  0  0  0  0
   10.0760   46.4300   52.5010 N   0  0  0  0  0  0  0  0  0  0  0  0
    3.3230   42.1390   51.5880 O   0  0  0  0  0  0  0  0  0  0  0  0
    7.5820   42.7560   48.5310 N   0  0  0  0  0  0  0  0  0  0  0  0
    5.7450   45.8740   54.5730 C   0  0  0  0  0  0  0  0  0  0  0  0
   10.8140   45.2160   50.7860 N   0  0  0  0  0  0  0  0  0  0  0  0
    0.9200   43.7740   52.3250 C   0  0  0  0  0  0  0  0  0  0  0  0
    9.0480   43.9690   49.5540 N   0  0  0  0  0  0  0  0  0  0  0  0
    7.4810   46.3790   51.7290 N   0  0  0  0  0  0  0  0  0  0  0  0
    2.9460   46.4980   51.8300 C   0  0  0  0  0  0  0  0  0  0  0  0
  2 33  1  0
  2  5  1  0
  2 14  1  0
  3 26  1  0
  4 24  4  0
  6 11  4  0
  7 25  4  0
  8 29  1  0
 10 33  1  0
 11 35  4  0
 12 25  4  0
 12  8  1  0
 13  6  4  0
 13 19  4  0
 14  1  1  0
 15 28  2  0
 16 36  1  0
 16  5  1  0
 16  3  1  0
 17 20  2  0
 17 27  1  0
 18 34  2  0
 18 13  1  0
 19 15  1  0
 19 35  4  0
 22 14  1  0
 23  4  4  0
 23  7  4  0
 24 12  4  0
 26 31  1  0
 26  9  1  0
 27 21  1  0
 28 27  1  0
 30  7  1  0
 30 18  1  0
 31  9  1  0
 32 15  1  0
 35 17  1  0
M  END
$$$$

     RDKit          3D

 27 30  0  0  0  0  0  0  0  0999 V2000
    2.6640   46.6770   51.5800 C   0  0  0  0  0  0  0  0  0  0  0  0
    7.0740   45.5580   51.4030 N   0  0  0  0  0  0  0  0  0  0  0  0
    4.1740   46.7930   51.5270 C   0  0  0  0  0  0  0  0  0  0  0  0
    3.2380   43.6630   52.7860 C   0  0  0  0  0  0  0  0  0  0  0  0
    4.6350   41.1130   49.8360 C   0  0  0  0  0  0  0  0  0  0  0  0
    4.6850   40.8980   47.4270 C   0  0  0  0  0  0  0  0  0  0  0  0
    2.9690   44.9670   53.4920 C   0  0  0  0  0  0  0  0  0  0  0  0
    8.6630   46.4110   52.6550 C   0  0  0  0  0  0  0  0  0  0  0  0
    4.2260   45.8400   53.8260 C   0  0  0  0  0  0  0  0  0  0  0  0
    9.4290   44.9090   50.5790 C   0  0  0  0  0  0  0  0  0  0  0  0
    5.8310   41.7350   49.8030 C   0  0  0  0  0  0  0  0  0  0  0  0
   10.7640   45.1910   50.7580 N   0  0  0  0  0  0  0  0  0  0  0  0
    7.4580   46.7500   53.2460 N   0  0  0  0  0  0  0  0  0  0  0  0
    6.5930   44.6010   50.1490 S   0  0  0  0  0  0  0  0  0  0  0  0
    1.9660   45.7930   52.5550 C   0  0  0  0  0  0  0  0  0  0  0  0
    7.8220   43.7010   49.3290 C   0  0  0  0  0  0  0  0  0  0  0  0
    4.9970   46.2490   52.6320 N   0  0  0  0  0  0  0  0  0  0  0  0
    7.5880   42.8080   48.5190 N   0  0  0  0  0  0  0  0  0  0  0  0
    9.7260   46.8980   52.9460 O   0  0  0  0  0  0  0  0  0  0  0  0
    5.0630   45.1050   54.8970 C   0  0  0  0  0  0  0  0  0  0  0  0
    8.4860   45.5930   51.4750 C   0  0  0  0  0  0  0  0  0  0  0  0
    1.9850   44.6260   54.9220 Cl  0  0  0  0  0  0  0  0  0  0  0  0
    5.8800   41.6450   47.3830 C   0  0  0  0  0  0  0  0  0  0  0  0
    9.0670   43.9650   49.5730 N   0  0  0  0  0  0  0  0  0  0  0  0
    6.4130   46.2450   52.4140 C   0  0  0  0  0  0  0  0  0  0  0  0
    6.4420   42.0680   48.6310 C   0  0  0  0  0  0  0  0  0  0  0  0
    4.0290   40.6220   48.6290 C   0  0  0  0  0  0  0  0  0  0  0  0
  1 15  1  0
  2 21  1  0
  2 25  4  0
  3  1  2  0
  3 17  1  0
  6 27  4  0
  7  4  1  0
  7  9  1  0
  7 22  1  0
  8 19  2  0
  8 13  4  0
  9 20  1  0
 10 12  1  0
 10 21  4  0
 11  5  4  0
 14  2  4  0
 15  7  1  0
 16 24  4  0
 16 14  4  0
 17  9  1  0
 18 26  1  0
 18 16  1  0
 21  8  4  0
 23  6  4  0
 23 26  4  0
 24 10  4  0
 25 17  1  0
 25 13  4  0
 26 11  4  0
 27  5  4  0
M  END
$$$$

     RDKit          3D

 18 19  0  0  0  0  0  0  0  0999 V2000
    9.1170   43.9350   49.6280 N   0  0  0  0  0  0  0  0  0  0  0  0
    4.0330   40.6850   48.6290 C   0  0  0  0  0  0  0  0  0  0  0  0
    4.6330   40.9430   47.3770 C   0  0  0  0  0  0  0  0  0  0  0  0
    7.0300   47.3610   52.2230 N   0  0  0  0  0  0  0  0  0  0  0  0
    9.4140   45.0270   50.5690 C   0  0  0  0  0  0  0  0  0  0  0  0
    5.8570   41.6090   47.3890 C   0  0  0  0  0  0  0  0  0  0  0  0
    5.8030   41.8580   49.8480 C   0  0  0  0  0  0  0  0  0  0  0  0
   10.2680   46.9660   52.9300 O   0  0  0  0  0  0  0  0  0  0  0  0
    7.0790   44.5430   50.0590 N   0  0  0  0  0  0  0  0  0  0  0  0
    7.8830   43.7960   49.4190 C   0  0  0  0  0  0  0  0  0  0  0  0
    8.4520   46.0010   51.4050 C   0  0  0  0  0  0  0  0  0  0  0  0
    8.0420   47.7460   52.9200 C   0  0  0  0  0  0  0  0  0  0  0  0
    6.3750   42.1140   48.6230 C   0  0  0  0  0  0  0  0  0  0  0  0
   10.7950   45.2170   50.7560 N   0  0  0  0  0  0  0  0  0  0  0  0
    9.0960   46.8940   52.4500 C   0  0  0  0  0  0  0  0  0  0  0  0
    4.6380   41.0850   49.8100 C   0  0  0  0  0  0  0  0  0  0  0  0
    7.2180   46.3600   51.4280 N   0  0  0  0  0  0  0  0  0  0  0  0
    7.6230   42.7510   48.5350 N   0  0  0  0  0  0  0  0  0  0  0  0
  1  5  1  0
  2 16  4  0
  3  6  4  0
  3  2  4  0
  4 12  2  0
  5 14  2  0
  5 11  1  0
  6 13  4  0
 10  1  1  0
 10  9  2  0
 11 17  2  0
 11 15  1  0
 13  7  4  0
 15 12  1  0
 15  8  2  0
 16  7  4  0
 17  4  1  0
 18 13  1  0
 18 10  1  0
M  END
$$$$

     RDKit          3D

 23 25  0  0  0  0  0  0  0  0999 V2000
    4.0850   40.6220   48.6350 C   0  0  0  0  0  0  0  0  0  0  0  0
    9.1110   43.8730   49.7530 N   0  0  0  0  0  0  0  0  0  0  0  0
    7.6560   47.0810   52.6030 C   0  0  0  0  0  0  0  0  0  0  0  0
    4.6760   40.9510   47.4120 C   0  0  0  0  0  0  0  0  0  0  0  0
    4.3890   45.8440   51.4550 C   0  0  0  0  0  0  0  0  0  0  0  0
    5.8340   41.7960   49.8070 C   0  0  0  0  0  0  0  0  0  0  0  0
    9.3890   46.7610   52.5360 S   0  0  0  0  0  0  0  0  0  0  0  0
    7.4390   45.7040   51.0710 N   0  0  0  0  0  0  0  0  0  0  0  0
    3.6080   46.4800   53.7770 N   0  0  0  0  0  0  0  0  0  0  0  0
    3.1170   46.3210   52.3190 C   0  0  0  0  0  0  0  0  0  0  0  0
    8.7750   45.6870   51.3140 C   0  0  0  0  0  0  0  0  0  0  0  0
    6.4360   42.0810   48.5980 C   0  0  0  0  0  0  0  0  0  0  0  0
   10.8030   45.1260   50.7500 N   0  0  0  0  0  0  0  0  0  0  0  0
    7.8570   43.3670   49.6160 N   0  0  0  0  0  0  0  0  0  0  0  0
    4.6870   41.1080   49.8300 C   0  0  0  0  0  0  0  0  0  0  0  0
    8.4290   47.8070   53.3220 C   0  0  0  0  0  0  0  0  0  0  0  0
    2.6820   45.5940   54.8520 C   0  0  0  0  0  0  0  0  0  0  0  0
    7.5630   42.8010   48.5370 N   0  0  0  0  0  0  0  0  0  0  0  0
    5.4970   46.6750   52.0360 N   0  0  0  0  0  0  0  0  0  0  0  0
    5.8630   41.6530   47.3800 C   0  0  0  0  0  0  0  0  0  0  0  0
    9.6200   44.8120   50.5860 C   0  0  0  0  0  0  0  0  0  0  0  0
    5.0680   47.2440   53.0950 C   0  0  0  0  0  0  0  0  0  0  0  0
    6.8620   46.5060   51.9120 C   0  0  0  0  0  0  0  0  0  0  0  0
  1 15  4  0
  2 21  1  0
  3 16  1  0
  4  1  4  0
  5 10  1  0
  6 15  4  0
  7 16  1  0
  8 11  1  0
  8 23  1  0
  9 17  1  0
 10  9  1  0
 11 21  1  0
 11  7  1  0
 12  6  4  0
 14  2  1  0
 18 12  1  0
 18 14  1  0
 19  5  1  0
 19 22  1  0
 20  4  4  0
 20 12  4  0
 21 13  2  0
 22  9  1  0
 23 19  1  0
 23  3  1  0
M  END
$$$$

     RDKit          3D

 27 30  0  0  0  0  0  0  0  0999 V2000
    8.8780   47.3880   53.2810 C   0  0  0  0  0  0  0  0  0  0  0  0
    5.1500   44.6150   55.1720 Cl  0  0  0  0  0  0  0  0  0  0  0  0
    5.8420   41.6710   47.3700 C   0  0  0  0  0  0  0  0  0  0  0  0
    1.8310   46.1050   52.5940 C   0  0  0  0  0  0  0  0  0  0  0  0
    8.7570   45.8570   51.6000 C   0  0  0  0  0  0  0  0  0  0  0  0
    7.5560   42.8040   48.5110 N   0  0  0  0  0  0  0  0  0  0  0  0
   10.8230   45.1800   50.7710 N   0  0  0  0  0  0  0  0  0  0  0  0
    9.0800   43.9360   49.5760 N   0  0  0  0  0  0  0  0  0  0  0  0
    4.1740   46.1800   53.1310 C   0  0  0  0  0  0  0  0  0  0  0  0
    4.7070   40.9090   47.3840 C   0  0  0  0  0  0  0  0  0  0  0  0
    7.8280   43.7360   49.4300 C   0  0  0  0  0  0  0  0  0  0  0  0
    7.4120   45.8490   51.6870 C   0  0  0  0  0  0  0  0  0  0  0  0
    4.6180   41.0620   49.7670 C   0  0  0  0  0  0  0  0  0  0  0  0
    5.4020   46.7130   52.9050 N   0  0  0  0  0  0  0  0  0  0  0  0
    3.1390   46.3930   52.1660 C   0  0  0  0  0  0  0  0  0  0  0  0
    1.5160   45.5280   53.7660 C   0  0  0  0  0  0  0  0  0  0  0  0
    3.4910   46.8090   50.5580 Cl  0  0  0  0  0  0  0  0  0  0  0  0
    7.5130   47.4230   53.4630 N   0  0  0  0  0  0  0  0  0  0  0  0
    5.8660   41.7190   49.8150 C   0  0  0  0  0  0  0  0  0  0  0  0
    6.4810   42.0350   48.5810 C   0  0  0  0  0  0  0  0  0  0  0  0
    6.7310   46.6720   52.6740 C   0  0  0  0  0  0  0  0  0  0  0  0
    2.5680   45.1690   54.6330 C   0  0  0  0  0  0  0  0  0  0  0  0
    6.7580   44.7470   50.4350 S   0  0  0  0  0  0  0  0  0  0  0  0
    9.5010   44.9740   50.6080 C   0  0  0  0  0  0  0  0  0  0  0  0
    4.0650   40.6700   48.6130 C   0  0  0  0  0  0  0  0  0  0  0  0
    9.5100   46.6100   52.4520 N   0  0  0  0  0  0  0  0  0  0  0  0
    3.8860   45.4260   54.2030 C   0  0  0  0  0  0  0  0  0  0  0  0
  1 18  4  0
  3 10  4  0
  3 20  4  0
  4 16  4  0
  5 12  4  0
  5 26  4  0
  6 20  1  0
  6 11  1  0
  8 24  1  0
  9 27  4  0
 10 25  4  0
 11  8  2  0
 11 23  1  0
 12 21  4  0
 13 19  4  0
 14  9  1  0
 15  4  4  0
 15  9  4  0
 16 22  4  0
 17 15  1  0
 20 19  4  0
 21 14  1  0
 21 18  4  0
 23 12  1  0
 24  7  1  0
 24  5  1  0
 25 13  4  0
 26  1  4  0
 27 22  4  0
 27  2  1  0
M  END
$$$$

     RDKit          3D

 36 40  0  0  0  0  0  0  0  0999 V2000
    6.2130   47.1580   53.0470 C   0  0  0  0  0  0  0  0  0  0  0  0
    5.2960   46.2180   53.9560 N   0  0  0  0  0  0  0  0  0  0  0  0
    8.5030   45.7560   51.3130 C   0  0  0  0  0  0  0  0  0  0  0  0
    8.6750   46.8650   52.2570 N   0  0  0  0  0  0  0  0  0  0  0  0
    8.4970   47.8110   54.3400 C   0  0  0  0  0  0  0  0  0  0  0  0
    4.0980   40.5720   48.5780 C   0  0  0  0  0  0  0  0  0  0  0  0
    5.8490   41.7450   49.8310 C   0  0  0  0  0  0  0  0  0  0  0  0
    4.7220   40.8950   47.3760 C   0  0  0  0  0  0  0  0  0  0  0  0
    6.0520   46.2510   51.9380 C   0  0  0  0  0  0  0  0  0  0  0  0
    4.6320   41.0570   49.7880 C   0  0  0  0  0  0  0  0  0  0  0  0
    7.1770   45.5150   51.1420 C   0  0  0  0  0  0  0  0  0  0  0  0
    7.5930   42.7700   48.5170 N   0  0  0  0  0  0  0  0  0  0  0  0
    9.9420   47.0560   52.6330 N   0  0  0  0  0  0  0  0  0  0  0  0
    1.2950   45.5180   54.5630 C   0  0  0  0  0  0  0  0  0  0  0  0
    9.3870   44.9050   50.5040 C   0  0  0  0  0  0  0  0  0  0  0  0
    1.6800   45.0750   50.8740 Cl  0  0  0  0  0  0  0  0  0  0  0  0
    9.8410   47.7830   53.8880 C   0  0  0  0  0  0  0  0  0  0  0  0
    6.5630   44.3640   50.1070 S   0  0  0  0  0  0  0  0  0  0  0  0
    2.4530   44.6880   54.7360 C   0  0  0  0  0  0  0  0  0  0  0  0
    9.1210   43.9470   49.5940 N   0  0  0  0  0  0  0  0  0  0  0  0
    4.4470   45.8410   51.6290 C   0  0  0  0  0  0  0  0  0  0  0  0
    3.8680   46.5600   54.0340 C   0  0  0  0  0  0  0  0  0  0  0  0
   10.7750   45.1670   50.7310 N   0  0  0  0  0  0  0  0  0  0  0  0
    5.8240   41.6230   47.4110 C   0  0  0  0  0  0  0  0  0  0  0  0
    2.0370   45.4310   52.4470 C   0  0  0  0  0  0  0  0  0  0  0  0
    6.4050   42.0540   48.6050 C   0  0  0  0  0  0  0  0  0  0  0  0
    6.0720   45.1440   54.4430 C   0  0  0  0  0  0  0  0  0  0  0  0
    7.8460   47.3010   53.1850 C   0  0  0  0  0  0  0  0  0  0  0  0
    2.5910   39.0080   47.5530 O   0  0  0  0  0  0  0  0  0  0  0  0
    3.0330   39.5230   48.5740 C   0  0  0  0  0  0  0  0  0  0  0  0
    3.3440   45.8910   52.7580 C   0  0  0  0  0  0  0  0  0  0  0  0
    2.6580   39.0680   49.7660 O   0  0  0  0  0  0  0  0  0  0  0  0
    0.8080   45.0280   53.2130 O   0  0  0  0  0  0  0  0  0  0  0  0
    5.7790   48.4360   53.3590 O   0  0  0  0  0  0  0  0  0  0  0  0
    7.8210   43.7030   49.3980 C   0  0  0  0  0  0  0  0  0  0  0  0
    5.1190   43.8270   55.2130 Cl  0  0  0  0  0  0  0  0  0  0  0  0
  1 28  1  0
  1 34  1  0
  1  2  1  0
  2 22  1  0
  2 27  1  0
  3  4  1  0
  4 13  4  0
  4 28  4  0
  6 10  4  0
  8 24  4  0
  8  6  4  0
  9  1  1  0
 10  7  4  0
 11  3  1  0
 11  9  2  0
 12 26  1  0
 12 35  1  0
 13 17  4  0
 14 19  1  0
 15 23  1  0
 15  3  2  0
 17  5  4  0
 18 11  1  0
 20 15  1  0
 21  9  1  0
 21 31  2  0
 24 26  4  0
 25 16  1  0
 25 31  1  0
 25 33  1  0
 26  7  4  0
 27 36  1  0
 28  5  4  0
 29 30  2  0
 30  6  1  0
 30 32  1  0
 31 22  1  0
 33 14  1  0
 35 20  2  0
 35 18  1  0
M  END
$$$$

     RDKit          3D

 18 19  0  0  0  0  0  0  0  0999 V2000
    6.5580   46.2380   53.2610 N   0  0  0  0  0  0  0  0  0  0  0  0
    5.8480   41.6500   47.3900 C   0  0  0  0  0  0  0  0  0  0  0  0
    9.0980   43.9480   49.5510 N   0  0  0  0  0  0  0  0  0  0  0  0
    6.4400   42.1010   48.5380 C   0  0  0  0  0  0  0  0  0  0  0  0
   10.7460   45.2490   50.6980 N   0  0  0  0  0  0  0  0  0  0  0  0
    9.3930   44.9070   50.4990 C   0  0  0  0  0  0  0  0  0  0  0  0
    4.0890   40.6890   48.6350 C   0  0  0  0  0  0  0  0  0  0  0  0
    5.8230   41.7750   49.8000 C   0  0  0  0  0  0  0  0  0  0  0  0
    7.8740   43.7260   49.3690 C   0  0  0  0  0  0  0  0  0  0  0  0
    5.8020   47.4640   53.4020 C   0  0  0  0  0  0  0  0  0  0  0  0
    7.6380   42.7930   48.5350 N   0  0  0  0  0  0  0  0  0  0  0  0
    8.6640   47.0390   52.7040 O   0  0  0  0  0  0  0  0  0  0  0  0
    4.6730   41.1620   49.8270 C   0  0  0  0  0  0  0  0  0  0  0  0
    8.0970   45.3830   51.1270 C   0  0  0  0  0  0  0  0  0  0  0  0
    6.7410   44.7920   50.2280 S   0  0  0  0  0  0  0  0  0  0  0  0
    7.7100   46.2440   52.3700 C   0  0  0  0  0  0  0  0  0  0  0  0
    6.1740   45.1530   54.0840 C   0  0  0  0  0  0  0  0  0  0  0  0
    4.6480   40.8750   47.4060 C   0  0  0  0  0  0  0  0  0  0  0  0
  1 10  1  0
  1 17  1  0
  2 18  4  0
  2  4  4  0
  3  6  4  0
  4  8  4  0
  6  5  1  0
  6 14  4  0
  7 13  4  0
  8 13  4  0
  9  3  4  0
  9 15  4  0
 11  4  1  0
 11  9  1  0
 14 16  1  0
 15 14  4  0
 16 12  2  0
 16  1  1  0
 18  7  4  0
M  END
$$$$

     RDKit          3D

 23 25  0  0  0  0  0  0  0  0999 V2000
    3.5440   46.4840   54.6210 C   0  0  0  0  0  0  0  0  0  0  0  0
    8.0800   43.5890   49.3560 N   0  0  0  0  0  0  0  0  0  0  0  0
    7.6100   42.7670   48.4780 N   0  0  0  0  0  0  0  0  0  0  0  0
    5.8420   41.8420   49.7950 C   0  0  0  0  0  0  0  0  0  0  0  0
    6.1960   46.2030   52.1040 C   0  0  0  0  0  0  0  0  0  0  0  0
    4.6530   41.0980   49.8110 C   0  0  0  0  0  0  0  0  0  0  0  0
    8.4820   46.7210   52.0180 C   0  0  0  0  0  0  0  0  0  0  0  0
    9.4940   47.3070   52.3330 O   0  0  0  0  0  0  0  0  0  0  0  0
    4.6850   40.9200   47.3900 C   0  0  0  0  0  0  0  0  0  0  0  0
    3.0580   45.0600   54.2640 C   0  0  0  0  0  0  0  0  0  0  0  0
    2.6150   45.2120   52.8800 C   0  0  0  0  0  0  0  0  0  0  0  0
    4.9090   46.2400   52.5940 C   0  0  0  0  0  0  0  0  0  0  0  0
    4.6890   46.8750   53.7110 N   0  0  0  0  0  0  0  0  0  0  0  0
    6.4910   42.0730   48.5610 C   0  0  0  0  0  0  0  0  0  0  0  0
   10.7710   45.2500   50.6950 N   0  0  0  0  0  0  0  0  0  0  0  0
    8.4590   45.6290   51.0950 C   0  0  0  0  0  0  0  0  0  0  0  0
    9.0870   43.9630   49.5360 N   0  0  0  0  0  0  0  0  0  0  0  0
    5.8110   41.6530   47.4060 C   0  0  0  0  0  0  0  0  0  0  0  0
    9.4630   44.9090   50.4690 C   0  0  0  0  0  0  0  0  0  0  0  0
    3.8460   45.3530   51.9900 C   0  0  0  0  0  0  0  0  0  0  0  0
    7.2680   47.0340   52.5160 N   0  0  0  0  0  0  0  0  0  0  0  0
    6.7980   45.1540   51.0010 S   0  0  0  0  0  0  0  0  0  0  0  0
    4.0460   40.6190   48.6430 C   0  0  0  0  0  0  0  0  0  0  0  0
  2 17  2  3
  3 14  1  0
  3  2  1  0
  4  6  4  0
  5 21  2  0
  7  8  2  0
  7 21  1  0
  9 18  4  0
  9 23  4  0
 10  1  1  0
 11 10  1  0
 12  5  1  0
 12 13  1  0
 13  1  1  0
 14  4  4  0
 16 19  1  0
 16  7  1  0
 17 19  1  0
 18 14  4  0
 19 15  2  0
 20 12  1  0
 20 11  1  0
 22 16  1  0
 22  5  1  0
 23  6  4  0
M  END
$$$$

     RDKit          3D

 28 30  0  0  0  0  0  0  0  0999 V2000
    1.5020   45.5110   52.9690 C   0  0  0  0  0  0  0  0  0  0  0  0
    7.6060   42.7770   48.5470 N   0  0  0  0  0  0  0  0  0  0  0  0
    8.1600   45.6270   51.2100 C   0  0  0  0  0  0  0  0  0  0  0  0
    2.5900   44.9530   55.6850 C   0  0  0  0  0  0  0  0  0  0  0  0
    3.7130   46.5750   52.5380 N   0  0  0  0  0  0  0  0  0  0  0  0
    8.2490   46.7690   53.8180 C   0  0  0  0  0  0  0  0  0  0  0  0
    9.0920   43.9300   49.5960 N   0  0  0  0  0  0  0  0  0  0  0  0
    8.8470   46.2060   52.4790 C   0  0  0  0  0  0  0  0  0  0  0  0
    2.7720   46.0130   53.6430 C   0  0  0  0  0  0  0  0  0  0  0  0
    4.0310   40.6110   48.6000 C   0  0  0  0  0  0  0  0  0  0  0  0
    6.0570   46.8340   52.6560 N   0  0  0  0  0  0  0  0  0  0  0  0
    1.8800   45.4060   51.4490 C   0  0  0  0  0  0  0  0  0  0  0  0
    6.8060   46.6580   53.9240 C   0  0  0  0  0  0  0  0  0  0  0  0
    4.8390   47.1810   52.8870 C   0  0  0  0  0  0  0  0  0  0  0  0
    7.7920   43.7740   49.4420 C   0  0  0  0  0  0  0  0  0  0  0  0
    6.5660   46.1260   51.5390 C   0  0  0  0  0  0  0  0  0  0  0  0
    5.8640   41.6270   47.3650 C   0  0  0  0  0  0  0  0  0  0  0  0
    4.6290   40.9130   47.4240 C   0  0  0  0  0  0  0  0  0  0  0  0
    3.4160   44.9930   54.3700 C   0  0  0  0  0  0  0  0  0  0  0  0
    6.4840   42.0160   48.5860 C   0  0  0  0  0  0  0  0  0  0  0  0
    7.0170   44.4460   50.0460 N   0  0  0  0  0  0  0  0  0  0  0  0
    4.6160   41.0910   49.8530 C   0  0  0  0  0  0  0  0  0  0  0  0
    9.9790   46.3990   52.5330 O   0  0  0  0  0  0  0  0  0  0  0  0
    9.3840   44.8370   50.4990 C   0  0  0  0  0  0  0  0  0  0  0  0
   10.8130   45.1880   50.7440 N   0  0  0  0  0  0  0  0  0  0  0  0
    3.1680   46.2210   51.2110 C   0  0  0  0  0  0  0  0  0  0  0  0
    5.9460   41.7160   49.7910 C   0  0  0  0  0  0  0  0  0  0  0  0
    4.7280   48.2540   53.4440 O   0  0  0  0  0  0  0  0  0  0  0  0
  1  9  1  0
  2 20  1  0
  2 15  1  0
  3 16  2  0
  3  8  1  0
  5 14  1  0
  5  9  1  0
  6 13  1  0
  7 24  1  0
  8 23  2  0
  8  6  1  0
  9 19  1  0
 10 22  4  0
 11 14  1  0
 11 13  1  0
 12  1  1  0
 14 28  2  0
 15  7  1  0
 15 21  2  0
 16 11  1  0
 17 18  4  0
 17 20  4  0
 18 10  4  0
 19  4  1  0
 20 27  4  0
 24 25  2  0
 24  3  1  0
 26 12  1  0
 26  5  1  0
 27 22  4  0
M  END
$$$$

     RDKit          3D

 23 25  0  0  0  0  0  0  0  0999 V2000
    4.6290   41.0720   49.8070 C   0  0  0  0  0  0  0  0  0  0  0  0
    9.2590   46.7090   51.8350 N   0  0  0  0  0  0  0  0  0  0  0  0
    4.8980   46.0450   54.7240 C   0  0  0  0  0  0  0  0  0  0  0  0
    9.6350   45.7110   51.0340 C   0  0  0  0  0  0  0  0  0  0  0  0
    9.0980   43.9680   49.5650 N   0  0  0  0  0  0  0  0  0  0  0  0
    7.6330   42.8040   48.5200 N   0  0  0  0  0  0  0  0  0  0  0  0
    4.7110   40.9400   47.4110 C   0  0  0  0  0  0  0  0  0  0  0  0
    4.3240   46.2470   53.5790 C   0  0  0  0  0  0  0  0  0  0  0  0
    9.2260   46.8630   53.0330 C   0  0  0  0  0  0  0  0  0  0  0  0
    5.0410   46.6830   52.4930 C   0  0  0  0  0  0  0  0  0  0  0  0
    5.8570   41.6960   49.7630 C   0  0  0  0  0  0  0  0  0  0  0  0
    8.6220   45.0890   50.3270 C   0  0  0  0  0  0  0  0  0  0  0  0
    6.4420   46.8750   52.7190 C   0  0  0  0  0  0  0  0  0  0  0  0
    6.4620   42.0270   48.6230 C   0  0  0  0  0  0  0  0  0  0  0  0
    3.7910   45.3490   55.6730 C   0  0  0  0  0  0  0  0  0  0  0  0
    4.0630   40.6400   48.6180 C   0  0  0  0  0  0  0  0  0  0  0  0
    7.9570   43.5570   49.2240 C   0  0  0  0  0  0  0  0  0  0  0  0
    5.8620   41.6200   47.4080 C   0  0  0  0  0  0  0  0  0  0  0  0
    8.2610   47.6220   53.6440 C   0  0  0  0  0  0  0  0  0  0  0  0
    6.3420   46.7470   54.6010 C   0  0  0  0  0  0  0  0  0  0  0  0
    6.9770   44.6540   50.2430 S   0  0  0  0  0  0  0  0  0  0  0  0
    7.0580   46.7800   53.8430 N   0  0  0  0  0  0  0  0  0  0  0  0
   10.7340   45.2290   50.7670 N   0  0  0  0  0  0  0  0  0  0  0  0
  2  9  1  0
  3 15  1  0
  4  2  1  0
  5 12  1  0
  6 14  1  0
  6 17  1  0
  7 16  4  0
  8  3  2  0
  9 19  1  0
 10 13  2  0
 10  8  1  0
 11  1  4  0
 12  4  1  0
 13 22  1  0
 14 11  4  0
 16  1  4  0
 17  5  2  0
 17 21  1  0
 18  7  4  0
 18 14  4  0
 19 22  1  0
 20  3  1  0
 21 12  1  0
 22 20  1  0
 23  4  2  0
M  END
$$$$

     RDKit          3D

 36 42  0  0  0  0  0  0  0  0999 V2000
    6.1390   47.0210   55.1920 C   0  0  0  0  0  0  0  0  0  0  0  0
    1.5670   46.0350   54.6350 O   0  0  0  0  0  0  0  0  0  0  0  0
    7.0090   44.8880   50.3110 S   0  0  0  0  0  0  0  0  0  0  0  0
    5.0540   46.8210   54.3160 C   0  0  0  0  0  0  0  0  0  0  0  0
    3.2520   41.1790   45.4630 O   0  0  0  0  0  0  0  0  0  0  0  0
    8.6160   45.6190   51.0050 C   0  0  0  0  0  0  0  0  0  0  0  0
    2.7340   41.5510   51.4920 N   0  0  0  0  0  0  0  0  0  0  0  0
    3.5600   41.2950   50.7790 C   0  0  0  0  0  0  0  0  0  0  0  0
   10.6550   46.1560   51.7110 C   0  0  0  0  0  0  0  0  0  0  0  0
    6.4550   42.0760   48.5560 C   0  0  0  0  0  0  0  0  0  0  0  0
    4.0380   46.8570   52.1300 C   0  0  0  0  0  0  0  0  0  0  0  0
    2.8880   39.3620   46.3210 C   0  0  0  0  0  0  0  0  0  0  0  0
    7.5500   42.7830   48.5120 N   0  0  0  0  0  0  0  0  0  0  0  0
    5.8570   41.7260   49.7960 C   0  0  0  0  0  0  0  0  0  0  0  0
    4.6400   40.8950   47.3930 C   0  0  0  0  0  0  0  0  0  0  0  0
    9.4880   44.8580   50.3290 C   0  0  0  0  0  0  0  0  0  0  0  0
    5.8520   41.6340   47.4060 C   0  0  0  0  0  0  0  0  0  0  0  0
    7.4470   47.3940   53.3260 C   0  0  0  0  0  0  0  0  0  0  0  0
    7.3130   47.4710   54.6820 N   0  0  0  0  0  0  0  0  0  0  0  0
    3.3270   45.8040   56.1300 C   0  0  0  0  0  0  0  0  0  0  0  0
    4.0020   40.2590   46.1710 C   0  0  0  0  0  0  0  0  0  0  0  0
    2.1950   40.2010   45.2440 C   0  0  0  0  0  0  0  0  0  0  0  0
    4.6180   41.1430   49.8530 C   0  0  0  0  0  0  0  0  0  0  0  0
    2.7550   46.3940   54.0130 N   0  0  0  0  0  0  0  0  0  0  0  0
    7.8920   43.8140   49.3450 C   0  0  0  0  0  0  0  0  0  0  0  0
    9.3100   46.4950   51.9220 N   0  0  0  0  0  0  0  0  0  0  0  0
   10.7730   45.1950   50.6660 N   0  0  0  0  0  0  0  0  0  0  0  0
    8.9100   47.3000   52.9210 C   0  0  0  0  0  0  0  0  0  0  0  0
    5.1920   47.0110   52.9740 C   0  0  0  0  0  0  0  0  0  0  0  0
    3.8100   46.3780   54.8350 C   0  0  0  0  0  0  0  0  0  0  0  0
    4.0360   40.6620   48.6200 C   0  0  0  0  0  0  0  0  0  0  0  0
    1.8800   45.5130   55.8670 C   0  0  0  0  0  0  0  0  0  0  0  0
    9.5960   47.9170   53.7600 O   0  0  0  0  0  0  0  0  0  0  0  0
    2.8070   46.6860   52.6670 C   0  0  0  0  0  0  0  0  0  0  0  0
    9.0680   43.9890   49.5420 N   0  0  0  0  0  0  0  0  0  0  0  0
    6.4630   47.1070   52.5100 N   0  0  0  0  0  0  0  0  0  0  0  0
  2 32  1  0
  4 30  1  0
  4  1  1  0
  5 21  1  0
  6  3  1  0
  6 26  1  0
  8  7  3  0
  9 26  1  0
 10 14  4  0
 11 34  2  0
 11 29  1  0
 13 10  1  0
 13 25  1  0
 14 23  4  0
 15 17  4  0
 15 31  4  0
 16 27  2  0
 16  6  1  0
 17 10  4  0
 18 19  2  0
 19  1  1  0
 21 12  1  0
 21 15  1  0
 22  5  1  0
 22 12  1  0
 23  8  1  0
 24  2  1  0
 24 30  1  0
 25 35  2  0
 25  3  1  0
 26 28  1  0
 27  9  1  0
 28 18  1  0
 28 33  2  0
 29  4  2  0
 30 20  2  0
 31 23  4  0
 32 20  1  0
 34 24  1  0
 35 16  1  0
 36 29  1  0
 36 18  1  0
M  END
$$$$

     RDKit          3D

 27 29  0  0  0  0  0  0  0  0999 V2000
    7.0020   44.2140   49.9740 N   0  0  0  0  0  0  0  0  0  0  0  0
    1.5820   45.6450   52.2770 C   0  0  0  0  0  0  0  0  0  0  0  0
    4.0460   46.1800   52.5560 N   0  0  0  0  0  0  0  0  0  0  0  0
    7.9360   47.2330   52.8890 N   0  0  0  0  0  0  0  0  0  0  0  0
    5.0540   46.0110   51.7730 C   0  0  0  0  0  0  0  0  0  0  0  0
    6.7230   47.2690   53.0500 N   0  0  0  0  0  0  0  0  0  0  0  0
    4.4860   45.5070   50.5210 C   0  0  0  0  0  0  0  0  0  0  0  0
    4.1010   46.3380   54.0450 C   0  0  0  0  0  0  0  0  0  0  0  0
    9.8510   45.8390   51.4210 C   0  0  0  0  0  0  0  0  0  0  0  0
    6.4680   42.0450   48.5820 C   0  0  0  0  0  0  0  0  0  0  0  0
    8.2150   44.5730   50.2410 C   0  0  0  0  0  0  0  0  0  0  0  0
    2.7350   46.7050   51.9720 C   0  0  0  0  0  0  0  0  0  0  0  0
    7.6450   42.8020   48.5410 N   0  0  0  0  0  0  0  0  0  0  0  0
    6.2350   46.4370   52.1000 C   0  0  0  0  0  0  0  0  0  0  0  0
   10.3170   46.8010   52.3760 N   0  0  0  0  0  0  0  0  0  0  0  0
    3.7900   45.0590   54.7570 C   0  0  0  0  0  0  0  0  0  0  0  0
    1.4310   45.5830   53.8230 C   0  0  0  0  0  0  0  0  0  0  0  0
    2.3320   44.5600   54.5170 C   0  0  0  0  0  0  0  0  0  0  0  0
    4.6450   40.9410   47.4210 C   0  0  0  0  0  0  0  0  0  0  0  0
    4.0480   40.6740   48.6200 C   0  0  0  0  0  0  0  0  0  0  0  0
    4.6960   41.1240   49.8210 C   0  0  0  0  0  0  0  0  0  0  0  0
    9.0860   43.9140   49.5540 N   0  0  0  0  0  0  0  0  0  0  0  0
    7.6280   46.4290   51.9980 C   0  0  0  0  0  0  0  0  0  0  0  0
    8.4980   45.6130   51.2180 C   0  0  0  0  0  0  0  0  0  0  0  0
    5.8680   41.6350   47.4090 C   0  0  0  0  0  0  0  0  0  0  0  0
   10.8070   45.2060   50.7180 N   0  0  0  0  0  0  0  0  0  0  0  0
    5.8580   41.8000   49.8010 C   0  0  0  0  0  0  0  0  0  0  0  0
  1 11  1  0
  2 17  1  0
  3  8  1  0
  5  7  1  0
  5  3  1  0
  6  4  1  0
  8 16  1  0
  9 15  1  0
 10 27  4  0
 11 24  1  0
 12  2  1  0
 12  3  1  0
 13 10  1  0
 14  5  1  0
 14  6  1  0
 17 18  1  0
 18 16  1  0
 19 20  4  0
 20 21  4  0
 22 11  2  0
 23 24  1  0
 23 14  1  0
 23  4  1  0
 23  6  1  0
 24  9  1  0
 25 19  4  0
 25 10  4  0
 26  9  2  0
 27 21  4  0
M  END
$$$$

     RDKit          3D

 23 25  0  0  0  0  0  0  0  0999 V2000
    7.8590   43.8940   49.4690 C   0  0  0  0  0  0  0  0  0  0  0  0
    5.1690   46.4080   52.6450 C   0  0  0  0  0  0  0  0  0  0  0  0
    9.1180   43.9900   49.5300 N   0  0  0  0  0  0  0  0  0  0  0  0
    5.8130   41.7800   49.8290 C   0  0  0  0  0  0  0  0  0  0  0  0
   10.4380   46.6480   52.3660 O   0  0  0  0  0  0  0  0  0  0  0  0
    5.8970   41.6170   47.4070 C   0  0  0  0  0  0  0  0  0  0  0  0
    7.0030   47.4060   52.6450 N   0  0  0  0  0  0  0  0  0  0  0  0
    4.6290   41.0890   49.8110 C   0  0  0  0  0  0  0  0  0  0  0  0
    3.7390   46.5610   52.1740 C   0  0  0  0  0  0  0  0  0  0  0  0
   10.7990   45.2160   50.7480 N   0  0  0  0  0  0  0  0  0  0  0  0
    4.6730   40.9670   47.3940 C   0  0  0  0  0  0  0  0  0  0  0  0
    6.3310   46.3820   52.0330 N   0  0  0  0  0  0  0  0  0  0  0  0
    8.4070   45.9760   51.3630 C   0  0  0  0  0  0  0  0  0  0  0  0
    6.8920   44.5970   50.0850 N   0  0  0  0  0  0  0  0  0  0  0  0
    2.8090   45.9260   53.2500 C   0  0  0  0  0  0  0  0  0  0  0  0
    6.4600   42.0960   48.6090 C   0  0  0  0  0  0  0  0  0  0  0  0
    4.0430   40.6600   48.5980 C   0  0  0  0  0  0  0  0  0  0  0  0
    7.1480   45.5790   51.1790 C   0  0  0  0  0  0  0  0  0  0  0  0
    8.0590   47.0670   52.2680 C   0  0  0  0  0  0  0  0  0  0  0  0
    5.0400   45.7710   54.1090 C   0  0  0  0  0  0  0  0  0  0  0  0
    9.9070   45.9940   51.4740 C   0  0  0  0  0  0  0  0  0  0  0  0
    3.5980   45.3560   54.3800 C   0  0  0  0  0  0  0  0  0  0  0  0
    7.6420   42.7610   48.5610 N   0  0  0  0  0  0  0  0  0  0  0  0
  1  3  2  0
  1 14  1  0
  2 20  1  0
  6 16  4  0
  8  4  4  0
  9  2  2  0
  9 15  1  0
 10 21  1  0
 11  6  4  0
 11 17  4  0
 12  7  4  0
 12  2  1  0
 13 21  1  0
 13 19  4  0
 14 18  1  0
 15 22  2  0
 16  4  4  0
 17  8  4  0
 18 13  4  0
 18 12  4  0
 19  7  4  0
 20 22  1  0
 21  5  2  0
 23 16  1  0
 23  1  1  0
M  END
$$$$

     RDKit          3D

 27 28  0  0  0  0  0  0  0  0999 V2000
    4.3840   45.0250   53.5890 C   0  0  0  0  0  0  0  0  0  0  0  0
    1.9490   45.5410   53.3600 C   0  0  0  0  0  0  0  0  0  0  0  0
    3.2900   45.3760   52.8090 C   0  0  0  0  0  0  0  0  0  0  0  0
   10.7900   45.2240   50.7440 N   0  0  0  0  0  0  0  0  0  0  0  0
    3.3440   45.8050   51.4880 C   0  0  0  0  0  0  0  0  0  0  0  0
    4.5490   45.7900   50.9290 C   0  0  0  0  0  0  0  0  0  0  0  0
    5.5960   45.1080   52.9300 C   0  0  0  0  0  0  0  0  0  0  0  0
    8.1640   45.1650   51.1690 N   0  0  0  0  0  0  0  0  0  0  0  0
    9.4030   44.8480   50.4330 C   0  0  0  0  0  0  0  0  0  0  0  0
    2.1890   45.2930   55.9320 C   0  0  0  0  0  0  0  0  0  0  0  0
    6.4560   42.1010   48.5720 C   0  0  0  0  0  0  0  0  0  0  0  0
    8.8480   46.9330   52.4250 C   0  0  0  0  0  0  0  0  0  0  0  0
    2.9850   47.5200   54.7610 C   0  0  0  0  0  0  0  0  0  0  0  0
    2.3530   46.1530   54.7240 N   0  0  0  0  0  0  0  0  0  0  0  0
    9.6730   47.3780   53.4650 N   0  0  0  0  0  0  0  0  0  0  0  0
    4.0690   40.6270   48.6590 C   0  0  0  0  0  0  0  0  0  0  0  0
    9.0480   43.9170   49.4960 N   0  0  0  0  0  0  0  0  0  0  0  0
    6.8960   45.2060   50.7930 N   0  0  0  0  0  0  0  0  0  0  0  0
    7.5750   42.7820   48.4970 N   0  0  0  0  0  0  0  0  0  0  0  0
    5.8870   41.6500   47.3970 C   0  0  0  0  0  0  0  0  0  0  0  0
    8.7160   47.5940   51.4030 O   0  0  0  0  0  0  0  0  0  0  0  0
    8.1900   45.6590   52.4700 C   0  0  0  0  0  0  0  0  0  0  0  0
    5.7490   45.4030   51.5990 C   0  0  0  0  0  0  0  0  0  0  0  0
    4.7000   40.9110   47.4450 C   0  0  0  0  0  0  0  0  0  0  0  0
    5.8390   41.7860   49.8050 C   0  0  0  0  0  0  0  0  0  0  0  0
    7.9910   43.7490   49.0680 C   0  0  0  0  0  0  0  0  0  0  0  0
    4.6700   41.1060   49.7930 C   0  0  0  0  0  0  0  0  0  0  0  0
  2 14  1  0
  3  2  1  0
  3  1  4  0
  5  3  4  0
  6  5  4  0
  6 23  4  0
  7  1  4  0
  8 22  1  0
  9  4  2  0
  9  8  1  0
 11 25  4  0
 12 22  1  0
 12 15  1  0
 14 13  1  0
 14 10  1  0
 16 27  4  0
 17  9  1  0
 18  8  1  0
 18 23  1  0
 19 11  1  0
 19 26  1  0
 20 24  4  0
 20 11  4  0
 21 12  2  0
 23  7  4  0
 24 16  4  0
 26 17  2  3
 27 25  4  0
M  END
$$$$

     RDKit          3D

 27 30  0  0  0  0  0  0  0  0999 V2000
    8.8510   47.0080   52.9860 N   0  0  0  0  0  0  0  0  0  0  0  0
    3.9570   46.8520   54.7380 C   0  0  0  0  0  0  0  0  0  0  0  0
    7.5970   42.7980   48.4660 N   0  0  0  0  0  0  0  0  0  0  0  0
    4.0220   40.6590   48.6350 C   0  0  0  0  0  0  0  0  0  0  0  0
    5.8570   41.6070   47.4400 C   0  0  0  0  0  0  0  0  0  0  0  0
    5.8740   46.7800   53.5320 C   0  0  0  0  0  0  0  0  0  0  0  0
    2.8600   46.2940   55.1430 N   0  0  0  0  0  0  0  0  0  0  0  0
    8.3970   45.7810   50.7930 C   0  0  0  0  0  0  0  0  0  0  0  0
    7.8080   46.9980   52.5410 C   0  0  0  0  0  0  0  0  0  0  0  0
    6.6490   46.9670   52.5760 N   0  0  0  0  0  0  0  0  0  0  0  0
    7.0380   45.0760   50.0700 S   0  0  0  0  0  0  0  0  0  0  0  0
    9.1460   43.9830   49.5550 N   0  0  0  0  0  0  0  0  0  0  0  0
    4.7170   46.2940   53.7570 C   0  0  0  0  0  0  0  0  0  0  0  0
    2.3210   45.1380   54.5370 C   0  0  0  0  0  0  0  0  0  0  0  0
    6.6910   47.3630   54.3200 N   0  0  0  0  0  0  0  0  0  0  0  0
    4.6640   40.9420   47.4170 C   0  0  0  0  0  0  0  0  0  0  0  0
    4.1370   40.4560   46.1020 C   0  0  0  0  0  0  0  0  0  0  0  0
    9.9530   47.1080   53.8940 C   0  0  0  0  0  0  0  0  0  0  0  0
    4.6100   41.1120   49.7880 C   0  0  0  0  0  0  0  0  0  0  0  0
    2.9960   44.6340   53.5090 C   0  0  0  0  0  0  0  0  0  0  0  0
    6.4090   42.1360   48.6160 C   0  0  0  0  0  0  0  0  0  0  0  0
    9.4470   44.9770   50.3980 C   0  0  0  0  0  0  0  0  0  0  0  0
    5.7840   41.8260   49.8030 C   0  0  0  0  0  0  0  0  0  0  0  0
    7.8680   43.7930   49.3330 C   0  0  0  0  0  0  0  0  0  0  0  0
    8.7400   46.9420   51.6110 C   0  0  0  0  0  0  0  0  0  0  0  0
    4.2720   45.2400   53.0810 C   0  0  0  0  0  0  0  0  0  0  0  0
   10.7810   45.2430   50.6840 N   0  0  0  0  0  0  0  0  0  0  0  0
  1 18  1  0
  2  7  4  0
  3 21  1  0
  3 24  1  0
  4 19  4  0
  5 21  4  0
  6 13  1  0
  6 15  2  0
  9 10  2  3
  9  1  1  0
 10  6  1  0
 11  8  4  0
 12 22  4  0
 13  2  4  0
 14  7  4  0
 16  5  4  0
 16  4  4  0
 17 16  1  0
 19 23  4  0
 20 14  4  0
 21 23  4  0
 22 27  1  0
 22  8  4  0
 24 12  4  0
 24 11  4  0
 25  8  1  0
 25  9  1  0
 25  1  1  0
 26 20  4  0
 26 13  4  0
M  END
$$$$

     RDKit          3D

 28 31  0  0  0  0  0  0  0  0999 V2000
    6.8020   46.3760   52.6120 C   0  0  0  0  0  0  0  0  0  0  0  0
    5.8370   41.7560   49.8430 C   0  0  0  0  0  0  0  0  0  0  0  0
    7.2570   44.7660   50.1610 C   0  0  0  0  0  0  0  0  0  0  0  0
    6.4010   42.1030   48.5350 C   0  0  0  0  0  0  0  0  0  0  0  0
   10.0630   47.4740   52.5700 O   0  0  0  0  0  0  0  0  0  0  0  0
    1.6460   45.3740   52.9460 C   0  0  0  0  0  0  0  0  0  0  0  0
    4.4420   45.5110   52.9210 C   0  0  0  0  0  0  0  0  0  0  0  0
    6.6770   47.4920   53.3110 N   0  0  0  0  0  0  0  0  0  0  0  0
    8.2860   45.4640   50.8710 N   0  0  0  0  0  0  0  0  0  0  0  0
    2.4400   44.6220   53.8790 C   0  0  0  0  0  0  0  0  0  0  0  0
    7.8940   43.7960   49.4290 C   0  0  0  0  0  0  0  0  0  0  0  0
    5.8770   41.6370   47.4050 C   0  0  0  0  0  0  0  0  0  0  0  0
    4.0450   40.6680   48.6090 C   0  0  0  0  0  0  0  0  0  0  0  0
    3.8580   44.6850   53.8930 C   0  0  0  0  0  0  0  0  0  0  0  0
    7.5770   42.7800   48.5490 N   0  0  0  0  0  0  0  0  0  0  0  0
    9.0600   43.9200   49.6060 N   0  0  0  0  0  0  0  0  0  0  0  0
    7.9730   46.2990   51.9260 C   0  0  0  0  0  0  0  0  0  0  0  0
    4.5760   41.0900   49.7970 C   0  0  0  0  0  0  0  0  0  0  0  0
    7.9030   48.0870   53.2260 N   0  0  0  0  0  0  0  0  0  0  0  0
    3.4890   39.2350   46.0430 O   0  0  0  0  0  0  0  0  0  0  0  0
    3.9650   40.5690   46.0610 C   0  0  0  0  0  0  0  0  0  0  0  0
    9.4250   44.8160   50.3900 C   0  0  0  0  0  0  0  0  0  0  0  0
    8.7750   47.3360   52.5490 C   0  0  0  0  0  0  0  0  0  0  0  0
   10.8020   45.1390   50.7460 N   0  0  0  0  0  0  0  0  0  0  0  0
    5.8140   45.2810   52.7020 C   0  0  0  0  0  0  0  0  0  0  0  0
    2.3290   46.2250   52.0990 C   0  0  0  0  0  0  0  0  0  0  0  0
    4.6630   40.9200   47.4240 C   0  0  0  0  0  0  0  0  0  0  0  0
    3.6900   46.2910   52.0510 C   0  0  0  0  0  0  0  0  0  0  0  0
  1 25  1  0
  1  8  1  0
  4 15  1  0
  4  2  4  0
  6 10  4  0
  7 14  4  0
  9  3  1  0
  9 17  1  0
 10 14  4  0
 11 16  2  0
 11  3  1  0
 12 27  4  0
 12  4  4  0
 13 18  4  0
 15 11  1  0
 16 22  1  0
 17 23  1  0
 17  1  1  0
 18  2  4  0
 19  8  1  0
 20 21  1  0
 21 27  1  0
 22 24  1  0
 22  9  1  0
 23  5  2  0
 23 19  1  0
 25  7  1  0
 26  6  4  0
 27 13  4  0
 28 26  4  0
 28  7  4  0
M  END
$$$$

     RDKit          3D

 27 29  0  0  0  0  0  0  0  0999 V2000
    7.2530   46.3540   51.6820 C   0  0  0  0  0  0  0  0  0  0  0  0
    4.0970   46.4610   54.0670 C   0  0  0  0  0  0  0  0  0  0  0  0
    5.8830   41.7510   49.7550 C   0  0  0  0  0  0  0  0  0  0  0  0
    7.4240   44.8890   49.9080 N   0  0  0  0  0  0  0  0  0  0  0  0
    4.7030   40.8940   47.3780 C   0  0  0  0  0  0  0  0  0  0  0  0
    9.8620   46.8550   52.1490 N   0  0  0  0  0  0  0  0  0  0  0  0
    1.6110   45.2270   54.1880 C   0  0  0  0  0  0  0  0  0  0  0  0
    4.0440   40.6320   48.6530 C   0  0  0  0  0  0  0  0  0  0  0  0
    4.1760   45.1520   54.8650 C   0  0  0  0  0  0  0  0  0  0  0  0
    8.2010   45.6060   50.8760 C   0  0  0  0  0  0  0  0  0  0  0  0
    7.6030   42.7960   48.5200 N   0  0  0  0  0  0  0  0  0  0  0  0
    2.8640   45.1910   52.1000 C   0  0  0  0  0  0  0  0  0  0  0  0
    8.9400   47.5050   52.7450 C   0  0  0  0  0  0  0  0  0  0  0  0
    7.8660   43.7910   49.3620 C   0  0  0  0  0  0  0  0  0  0  0  0
    6.4830   42.0940   48.5800 C   0  0  0  0  0  0  0  0  0  0  0  0
    9.1250   43.9720   49.6310 N   0  0  0  0  0  0  0  0  0  0  0  0
    1.9090   44.4840   52.9450 N   0  0  0  0  0  0  0  0  0  0  0  0
    7.6790   47.2910   52.5880 N   0  0  0  0  0  0  0  0  0  0  0  0
    5.9460   45.8690   51.4270 N   0  0  0  0  0  0  0  0  0  0  0  0
    9.6860   45.9010   51.2840 C   0  0  0  0  0  0  0  0  0  0  0  0
   10.7470   45.2070   50.6670 N   0  0  0  0  0  0  0  0  0  0  0  0
    2.8570   45.1350   50.9280 O   0  0  0  0  0  0  0  0  0  0  0  0
    2.7140   44.9240   55.2340 C   0  0  0  0  0  0  0  0  0  0  0  0
    3.7690   46.0990   52.5940 N   0  0  0  0  0  0  0  0  0  0  0  0
    4.8440   46.6270   51.8480 C   0  0  0  0  0  0  0  0  0  0  0  0
    4.6630   41.0780   49.8330 C   0  0  0  0  0  0  0  0  0  0  0  0
    5.8930   41.6340   47.3660 C   0  0  0  0  0  0  0  0  0  0  0  0
  1 18  4  0
  2  9  1  0
  3 26  4  0
  4 10  1  0
  5  8  4  0
  6 13  4  0
  7 23  1  0
  8 26  4  0
  9 23  1  0
 10 20  4  0
 10  1  4  0
 11 15  1  0
 11 14  1  0
 12 24  1  0
 12 17  1  0
 14 16  2  0
 14  4  1  0
 15  3  4  0
 17  7  1  0
 18 13  4  0
 19  1  1  0
 19 25  1  0
 20  6  4  0
 21 20  1  0
 22 12  2  0
 24  2  1  0
 25 24  1  0
 27  5  4  0
 27 15  4  0
M  END
$$$$

     RDKit          3D

 28 31  0  0  0  0  0  0  0  0999 V2000
    6.4830   42.1350   48.5560 C   0  0  0  0  0  0  0  0  0  0  0  0
    2.3110   45.5960   52.4370 C   0  0  0  0  0  0  0  0  0  0  0  0
    4.8720   46.5380   53.1390 C   0  0  0  0  0  0  0  0  0  0  0  0
    3.3870   40.8470   45.4460 O   0  0  0  0  0  0  0  0  0  0  0  0
    8.2300   46.5490   51.8570 C   0  0  0  0  0  0  0  0  0  0  0  0
    1.2640   44.9910   53.2230 O   0  0  0  0  0  0  0  0  0  0  0  0
    4.0770   40.6750   48.7180 C   0  0  0  0  0  0  0  0  0  0  0  0
    6.9310   44.8860   50.1240 S   0  0  0  0  0  0  0  0  0  0  0  0
    3.4900   46.1330   53.1360 C   0  0  0  0  0  0  0  0  0  0  0  0
    7.6160   42.7760   48.5290 N   0  0  0  0  0  0  0  0  0  0  0  0
    9.4480   44.8910   50.3870 C   0  0  0  0  0  0  0  0  0  0  0  0
   10.7740   45.2510   50.7470 N   0  0  0  0  0  0  0  0  0  0  0  0
    5.8710   41.6000   47.4230 C   0  0  0  0  0  0  0  0  0  0  0  0
    2.4010   45.4030   55.2680 C   0  0  0  0  0  0  0  0  0  0  0  0
    4.6360   40.8620   47.4740 C   0  0  0  0  0  0  0  0  0  0  0  0
    3.6760   40.3030   46.4710 C   0  0  0  0  0  0  0  0  0  0  0  0
    1.6620   44.4490   54.3020 C   0  0  0  0  0  0  0  0  0  0  0  0
    9.0700   43.9360   49.6020 N   0  0  0  0  0  0  0  0  0  0  0  0
    5.8970   41.8340   49.8290 C   0  0  0  0  0  0  0  0  0  0  0  0
    3.0030   46.3620   54.3460 N   0  0  0  0  0  0  0  0  0  0  0  0
    6.9640   46.7170   52.6130 C   0  0  0  0  0  0  0  0  0  0  0  0
    8.2670   45.5740   50.8940 C   0  0  0  0  0  0  0  0  0  0  0  0
    6.7680   47.3340   53.8270 C   0  0  0  0  0  0  0  0  0  0  0  0
    7.9130   43.7890   49.3520 C   0  0  0  0  0  0  0  0  0  0  0  0
    3.1360   39.1360   46.6750 N   0  0  0  0  0  0  0  0  0  0  0  0
    5.4930   47.2580   54.1140 N   0  0  0  0  0  0  0  0  0  0  0  0
    4.6970   41.1650   49.7790 C   0  0  0  0  0  0  0  0  0  0  0  0
    5.7930   46.1660   52.2040 N   0  0  0  0  0  0  0  0  0  0  0  0
  1 19  4  0
  2  9  1  0
  2  6  1  0
  3 26  4  0
  4 16  2  0
  5 21  1  0
  6 17  1  0
  7 27  4  0
  8 22  4  0
  9  3  1  0
  9 20  1  0
 10  1  1  0
 10 24  1  0
 11 12  1  0
 11 22  4  0
 13 15  4  0
 13  1  4  0
 15  7  4  0
 16 25  1  0
 16 15  1  0
 17 14  1  0
 18 11  4  0
 20 14  1  0
 21 23  4  0
 22  5  1  0
 23 26  4  0
 24 18  4  0
 24  8  4  0
 27 19  4  0
 28 21  4  0
 28  3  4  0
M  END
$$$$

     RDKit          3D

 27 27  0  0  0  0  0  0  0  0999 V2000
    2.7090   43.8230   52.6730 C   0  0  0  0  0  0  0  0  0  0  0  0
    9.5070   44.8350   50.5080 C   0  0  0  0  0  0  0  0  0  0  0  0
    8.7450   46.2500   52.1850 N   0  0  0  0  0  0  0  0  0  0  0  0
    7.9270   43.7580   49.4000 C   0  0  0  0  0  0  0  0  0  0  0  0
    4.0270   46.2750   54.6730 C   0  0  0  0  0  0  0  0  0  0  0  0
    1.6800   45.9020   54.3390 O   0  0  0  0  0  0  0  0  0  0  0  0
    5.6870   46.9370   53.0930 C   0  0  0  0  0  0  0  0  0  0  0  0
   10.8330   45.1780   50.7670 N   0  0  0  0  0  0  0  0  0  0  0  0
    4.6510   40.9220   47.3710 C   0  0  0  0  0  0  0  0  0  0  0  0
    6.6960   47.2660   52.3460 N   0  0  0  0  0  0  0  0  0  0  0  0
    5.8490   41.7550   49.8700 C   0  0  0  0  0  0  0  0  0  0  0  0
    3.1280   46.1860   52.5290 C   0  0  0  0  0  0  0  0  0  0  0  0
    5.8460   41.6300   47.3480 C   0  0  0  0  0  0  0  0  0  0  0  0
    6.4610   42.0900   48.5940 C   0  0  0  0  0  0  0  0  0  0  0  0
    2.1570   46.0070   51.1660 Cl  0  0  0  0  0  0  0  0  0  0  0  0
    4.0500   40.6400   48.6100 C   0  0  0  0  0  0  0  0  0  0  0  0
    8.4810   48.1790   53.3700 O   0  0  0  0  0  0  0  0  0  0  0  0
    5.3060   46.5290   54.2540 C   0  0  0  0  0  0  0  0  0  0  0  0
    8.4440   45.4640   51.1500 C   0  0  0  0  0  0  0  0  0  0  0  0
    4.6890   41.0840   49.8050 C   0  0  0  0  0  0  0  0  0  0  0  0
    1.8000   45.3880   55.6940 C   0  0  0  0  0  0  0  0  0  0  0  0
    6.9730   44.8110   50.3960 S   0  0  0  0  0  0  0  0  0  0  0  0
    2.9590   46.0300   53.8830 C   0  0  0  0  0  0  0  0  0  0  0  0
    7.9530   47.2270   52.7120 C   0  0  0  0  0  0  0  0  0  0  0  0
    7.6320   42.8020   48.5160 N   0  0  0  0  0  0  0  0  0  0  0  0
    9.1050   43.9350   49.6180 N   0  0  0  0  0  0  0  0  0  0  0  0
    3.9660   46.4230   51.8470 C   0  0  0  0  0  0  0  0  0  0  0  0
  2  8  1  0
  2 19  4  0
  3 24  1  0
  4 26  4  0
  4 22  4  0
  6 21  1  0
  7 18  2  3
  9 16  4  0
 10 24  1  0
 10  7  1  0
 12 23  1  0
 13  9  4  0
 13 14  4  0
 14 11  4  0
 15 12  1  0
 16 20  4  0
 18  5  1  0
 19  3  1  0
 20 11  4  0
 22 19  4  0
 23  6  1  0
 23  5  2  3
 24 17  2  0
 25 14  1  0
 25  4  1  0
 26  2  4  0
 27 12  2  0
M  END
$$$$

     RDKit          3D

 18 20  0  0  0  0  0  0  0  0999 V2000
    9.5260   47.3390   52.2890 N   0  0  0  0  0  0  0  0  0  0  0  0
    6.1390   46.8090   52.2640 N   0  0  0  0  0  0  0  0  0  0  0  0
    7.3160   47.4360   52.4160 O   0  0  0  0  0  0  0  0  0  0  0  0
    5.8730   41.5890   47.3730 C   0  0  0  0  0  0  0  0  0  0  0  0
    4.6240   40.9120   47.4290 C   0  0  0  0  0  0  0  0  0  0  0  0
    8.3040   45.6820   50.8770 C   0  0  0  0  0  0  0  0  0  0  0  0
   10.7570   45.2590   50.8120 N   0  0  0  0  0  0  0  0  0  0  0  0
    9.1070   44.0000   49.5670 N   0  0  0  0  0  0  0  0  0  0  0  0
    5.7690   41.8120   49.8000 C   0  0  0  0  0  0  0  0  0  0  0  0
    8.4120   46.8030   51.8760 C   0  0  0  0  0  0  0  0  0  0  0  0
    9.4940   44.9440   50.4960 C   0  0  0  0  0  0  0  0  0  0  0  0
    7.8760   43.8070   49.2790 C   0  0  0  0  0  0  0  0  0  0  0  0
    4.6430   41.0800   49.7910 C   0  0  0  0  0  0  0  0  0  0  0  0
    6.0010   45.9470   51.3940 C   0  0  0  0  0  0  0  0  0  0  0  0
    6.4110   42.1180   48.5610 C   0  0  0  0  0  0  0  0  0  0  0  0
    4.0230   40.6640   48.6200 C   0  0  0  0  0  0  0  0  0  0  0  0
    7.6300   42.7880   48.5420 N   0  0  0  0  0  0  0  0  0  0  0  0
    7.1450   45.0940   50.4040 N   0  0  0  0  0  0  0  0  0  0  0  0
  2  3  1  0
  4  5  4  0
  4 15  4  0
  5 16  4  0
  6 10  2  0
  8 11  1  0
 10  1  1  0
 10  3  1  0
 11  7  1  0
 11  6  1  0
 12  8  2  0
 12 18  1  0
 13  9  4  0
 14  2  2  0
 15  9  4  0
 16 13  4  0
 17 15  1  0
 17 12  1  0
 18  6  1  0
 18 14  1  0
M  END
$$$$

     RDKit          3D

 28 29  0  0  0  0  0  0  0  0999 V2000
    3.1710   44.6540   52.3150 C   0  0  0  0  0  0  0  0  0  0  0  0
    3.4930   46.2430   50.4870 Cl  0  0  0  0  0  0  0  0  0  0  0  0
    5.8690   41.7810   49.7910 C   0  0  0  0  0  0  0  0  0  0  0  0
    8.4530   45.9770   51.3820 C   0  0  0  0  0  0  0  0  0  0  0  0
    2.6280   44.1640   53.3990 C   0  0  0  0  0  0  0  0  0  0  0  0
    4.0990   46.8780   52.8230 C   0  0  0  0  0  0  0  0  0  0  0  0
    3.5400   45.8960   52.0340 C   0  0  0  0  0  0  0  0  0  0  0  0
    7.5860   42.7770   48.5550 N   0  0  0  0  0  0  0  0  0  0  0  0
   10.3110   46.8840   52.1670 O   0  0  0  0  0  0  0  0  0  0  0  0
    9.9160   45.9810   51.3690 C   0  0  0  0  0  0  0  0  0  0  0  0
    6.4820   46.9000   52.0630 C   0  0  0  0  0  0  0  0  0  0  0  0
    7.8400   43.7970   49.3120 C   0  0  0  0  0  0  0  0  0  0  0  0
    4.0520   40.6120   48.6290 C   0  0  0  0  0  0  0  0  0  0  0  0
    9.0890   43.9500   49.5590 N   0  0  0  0  0  0  0  0  0  0  0  0
    5.2540   47.2820   54.8810 C   0  0  0  0  0  0  0  0  0  0  0  0
    1.3500   44.1800   55.6370 Cl  0  0  0  0  0  0  0  0  0  0  0  0
    3.1820   45.9630   54.9750 C   0  0  0  0  0  0  0  0  0  0  0  0
    4.6480   40.9030   47.4270 C   0  0  0  0  0  0  0  0  0  0  0  0
    6.1080   45.9630   51.3070 N   0  0  0  0  0  0  0  0  0  0  0  0
    7.1960   45.4800   50.8940 C   0  0  0  0  0  0  0  0  0  0  0  0
    5.8540   41.6340   47.3830 C   0  0  0  0  0  0  0  0  0  0  0  0
    2.4800   44.8940   54.5350 C   0  0  0  0  0  0  0  0  0  0  0  0
    4.6910   41.1140   49.8210 C   0  0  0  0  0  0  0  0  0  0  0  0
    4.1030   46.6600   54.1650 N   0  0  0  0  0  0  0  0  0  0  0  0
    6.9610   44.4520   49.9390 N   0  0  0  0  0  0  0  0  0  0  0  0
   10.7720   45.1790   50.7170 N   0  0  0  0  0  0  0  0  0  0  0  0
    6.4530   42.0650   48.5760 C   0  0  0  0  0  0  0  0  0  0  0  0
    7.8020   46.8210   52.2300 N   0  0  0  0  0  0  0  0  0  0  0  0
  1  5  2  0
  2  7  1  0
  3 23  4  0
  4 10  1  0
  4 28  1  0
  5 22  1  0
  6 24  1  0
  7  1  1  0
  7  6  2  0
  8 27  1  0
  8 12  1  0
 10  9  2  0
 11 28  2  0
 12 14  2  0
 12 25  1  0
 13 23  4  0
 18 13  4  0
 19 11  1  0
 20 19  2  0
 20  4  1  0
 21 18  4  0
 21 27  4  0
 22 17  2  0
 22 16  1  0
 24 15  1  0
 24 17  1  0
 25 20  1  0
 26 10  1  0
 27  3  4  0
M  END
$$$$

     RDKit          3D

 36 42  0  0  0  0  0  0  0  0999 V2000
    9.1500   43.9360   49.6080 N   0  0  0  0  0  0  0  0  0  0  0  0
    4.6390   41.1190   49.8550 C   0  0  0  0  0  0  0  0  0  0  0  0
    1.5140   46.1880   55.6000 C   0  0  0  0  0  0  0  0  0  0  0  0
    2.8900   39.1520   46.9210 N   0  0  0  0  0  0  0  0  0  0  0  0
    1.6050   44.7100   55.9320 C   0  0  0  0  0  0  0  0  0  0  0  0
    5.9940   47.0960   52.6770 C   0  0  0  0  0  0  0  0  0  0  0  0
    6.9000   44.7490   50.2750 S   0  0  0  0  0  0  0  0  0  0  0  0
    3.1050   40.6870   45.3400 C   0  0  0  0  0  0  0  0  0  0  0  0
    7.1890   47.5720   52.1450 N   0  0  0  0  0  0  0  0  0  0  0  0
    5.8320   41.6560   47.3690 C   0  0  0  0  0  0  0  0  0  0  0  0
    6.4590   42.0850   48.5620 C   0  0  0  0  0  0  0  0  0  0  0  0
    7.5840   42.7630   48.5430 N   0  0  0  0  0  0  0  0  0  0  0  0
    5.8410   41.7630   49.8170 C   0  0  0  0  0  0  0  0  0  0  0  0
    4.6180   40.8880   47.4550 C   0  0  0  0  0  0  0  0  0  0  0  0
    7.8740   43.7610   49.3990 C   0  0  0  0  0  0  0  0  0  0  0  0
    1.9840   38.7600   45.8970 O   0  0  0  0  0  0  0  0  0  0  0  0
    8.2570   48.0950   54.5890 C   0  0  0  0  0  0  0  0  0  0  0  0
    9.4820   44.9410   50.4590 C   0  0  0  0  0  0  0  0  0  0  0  0
    8.3310   47.5570   53.0930 C   0  0  0  0  0  0  0  0  0  0  0  0
    4.0600   47.2110   53.9750 C   0  0  0  0  0  0  0  0  0  0  0  0
    3.6010   40.2720   46.5690 C   0  0  0  0  0  0  0  0  0  0  0  0
    8.2880   45.5570   50.9370 C   0  0  0  0  0  0  0  0  0  0  0  0
    8.0750   46.4920   51.8400 C   0  0  0  0  0  0  0  0  0  0  0  0
    4.9350   46.4830   51.8160 C   0  0  0  0  0  0  0  0  0  0  0  0
    2.2160   39.7700   44.9090 C   0  0  0  0  0  0  0  0  0  0  0  0
    4.0340   40.6850   48.6200 C   0  0  0  0  0  0  0  0  0  0  0  0
    2.7100   45.2610   53.8870 N   0  0  0  0  0  0  0  0  0  0  0  0
   10.7890   45.2820   50.7470 N   0  0  0  0  0  0  0  0  0  0  0  0
    5.4430   47.4980   53.9940 C   0  0  0  0  0  0  0  0  0  0  0  0
    3.9230   46.5640   52.6560 C   0  0  0  0  0  0  0  0  0  0  0  0
    9.2560   46.9210   52.3680 O   0  0  0  0  0  0  0  0  0  0  0  0
    3.2830   45.2410   52.7630 C   0  0  0  0  0  0  0  0  0  0  0  0
    2.3380   44.2120   54.7440 C   0  0  0  0  0  0  0  0  0  0  0  0
    4.3170   46.1000   50.8230 C   0  0  0  0  0  0  0  0  0  0  0  0
    3.1920   44.2620   51.9460 O   0  0  0  0  0  0  0  0  0  0  0  0
    2.6420   46.7110   54.8460 O   0  0  0  0  0  0  0  0  0  0  0  0
  1 18  4  0
  3  5  1  0
  6 29  1  0
  7 22  4  0
  8 21  4  0
  9  6  1  0
  9 19  1  0
 10 14  4  0
 10 11  4  0
 11 13  4  0
 12 11  1  0
 12 15  1  0
 13  2  4  0
 14 26  4  0
 15  1  4  0
 15  7  4  0
 16  4  4  0
 18 28  1  0
 18 22  4  0
 19 17  1  0
 20 29  1  0
 20 36  1  0
 21  4  4  0
 21 14  1  0
 23 22  1  0
 23  9  1  0
 23 31  1  0
 23 19  1  0
 24  6  1  0
 25  8  4  0
 25 16  4  0
 26  2  4  0
 27 33  1  0
 30 24  1  0
 30 32  1  0
 30 20  1  0
 31 19  1  0
 32 27  1  0
 33  5  1  0
 34 24  2  0
 35 32  2  0
 36  3  1  0
M  END
$$$$

     RDKit          3D

 27 30  0  0  0  0  0  0  0  0999 V2000
    9.1360   43.9520   49.5890 N   0  0  0  0  0  0  0  0  0  0  0  0
   10.7790   45.1960   50.7650 N   0  0  0  0  0  0  0  0  0  0  0  0
    2.1920   45.3580   51.6130 C   0  0  0  0  0  0  0  0  0  0  0  0
    3.3730   46.1080   51.7500 C   0  0  0  0  0  0  0  0  0  0  0  0
    7.8650   46.7460   52.4230 C   0  0  0  0  0  0  0  0  0  0  0  0
    8.1390   43.6850   49.0970 C   0  0  0  0  0  0  0  0  0  0  0  0
    3.6680   45.2810   53.9950 C   0  0  0  0  0  0  0  0  0  0  0  0
    9.9200   45.9770   51.6880 C   0  0  0  0  0  0  0  0  0  0  0  0
   10.0900   46.7190   52.8430 N   0  0  0  0  0  0  0  0  0  0  0  0
    8.8400   47.1850   53.2190 C   0  0  0  0  0  0  0  0  0  0  0  0
    5.8660   41.8250   49.7790 C   0  0  0  0  0  0  0  0  0  0  0  0
    5.7360   47.2100   54.9100 Cl  0  0  0  0  0  0  0  0  0  0  0  0
    3.6590   46.9940   50.3400 Cl  0  0  0  0  0  0  0  0  0  0  0  0
    1.7350   44.5450   52.7400 C   0  0  0  0  0  0  0  0  0  0  0  0
    5.3390   46.9580   53.1510 C   0  0  0  0  0  0  0  0  0  0  0  0
    8.5770   45.9880   51.5190 C   0  0  0  0  0  0  0  0  0  0  0  0
    4.0180   40.6330   48.6300 C   0  0  0  0  0  0  0  0  0  0  0  0
    6.5040   42.0820   48.6010 C   0  0  0  0  0  0  0  0  0  0  0  0
    4.1130   46.1600   52.9520 C   0  0  0  0  0  0  0  0  0  0  0  0
    7.6310   42.7960   48.4860 N   0  0  0  0  0  0  0  0  0  0  0  0
    6.5670   46.9080   52.3090 N   0  0  0  0  0  0  0  0  0  0  0  0
    4.6730   41.1220   49.8460 C   0  0  0  0  0  0  0  0  0  0  0  0
    4.6680   40.9310   47.4550 C   0  0  0  0  0  0  0  0  0  0  0  0
    8.1950   45.1360   50.6050 C   0  0  0  0  0  0  0  0  0  0  0  0
    2.5210   44.4710   53.8780 C   0  0  0  0  0  0  0  0  0  0  0  0
    5.8840   41.6430   47.3890 C   0  0  0  0  0  0  0  0  0  0  0  0
    6.6610   44.9430   50.1650 S   0  0  0  0  0  0  0  0  0  0  0  0
  1 24  1  0
  2  8  1  0
  3  4  4  0
  3 14  4  0
  4 19  4  0
  5 10  1  0
  6  1  2  0
  6 27  1  0
  8  9  2  0
  9 10  1  0
 11 22  4  0
 13  4  1  0
 14 25  4  0
 15 12  1  0
 16  8  1  0
 16  5  2  0
 17 22  4  0
 18 11  4  0
 19 15  1  0
 19  7  4  0
 20 18  1  0
 20  6  1  0
 21  5  1  0
 21 15  1  0
 23 17  4  0
 24 16  1  0
 25  7  4  0
 26 23  4  0
 26 18  4  0
 27 24  1  0
M  END
$$$$

     RDKit          3D

 27 29  0  0  0  0  0  0  0  0999 V2000
    8.4010   45.5100   51.1940 C   0  0  0  0  0  0  0  0  0  0  0  0
    9.4500   44.8420   50.5120 C   0  0  0  0  0  0  0  0  0  0  0  0
    9.0840   43.9030   49.6000 N   0  0  0  0  0  0  0  0  0  0  0  0
    5.4270   47.6660   52.8950 C   0  0  0  0  0  0  0  0  0  0  0  0
    7.5830   42.7810   48.4440 N   0  0  0  0  0  0  0  0  0  0  0  0
    3.5570   48.7640   54.0930 C   0  0  0  0  0  0  0  0  0  0  0  0
    4.0880   40.6550   48.5940 C   0  0  0  0  0  0  0  0  0  0  0  0
    2.6400   44.9570   54.3220 C   0  0  0  0  0  0  0  0  0  0  0  0
   10.7610   45.2020   50.7400 N   0  0  0  0  0  0  0  0  0  0  0  0
    9.3560   47.5550   52.2130 O   0  0  0  0  0  0  0  0  0  0  0  0
    4.6440   41.0970   49.8340 C   0  0  0  0  0  0  0  0  0  0  0  0
    4.0420   47.4940   53.6550 N   0  0  0  0  0  0  0  0  0  0  0  0
    3.8320   45.3940   55.2550 C   0  0  0  0  0  0  0  0  0  0  0  0
    3.9910   44.6820   53.8580 C   0  0  0  0  0  0  0  0  0  0  0  0
    8.7170   46.3280   52.4550 C   0  0  0  0  0  0  0  0  0  0  0  0
    5.8050   41.8080   49.8610 C   0  0  0  0  0  0  0  0  0  0  0  0
    4.6380   45.3640   52.6460 C   0  0  0  0  0  0  0  0  0  0  0  0
    5.8640   41.6840   47.4130 C   0  0  0  0  0  0  0  0  0  0  0  0
    4.7730   46.7620   52.8600 C   0  0  0  0  0  0  0  0  0  0  0  0
    5.0900   44.7360   55.0410 C   0  0  0  0  0  0  0  0  0  0  0  0
    6.4690   48.2590   52.7780 O   0  0  0  0  0  0  0  0  0  0  0  0
    8.0810   43.6180   49.3950 C   0  0  0  0  0  0  0  0  0  0  0  0
    6.4760   42.0620   48.5510 C   0  0  0  0  0  0  0  0  0  0  0  0
    4.6770   40.8690   47.3860 C   0  0  0  0  0  0  0  0  0  0  0  0
    5.1490   44.6810   51.8630 N   0  0  0  0  0  0  0  0  0  0  0  0
    6.1840   45.4690   51.6450 N   0  0  0  0  0  0  0  0  0  0  0  0
    7.2160   45.1050   50.8780 C   0  0  0  0  0  0  0  0  0  0  0  0
  1 15  1  0
  2  9  2  0
  2  1  1  0
  3  2  1  0
  5 23  1  0
  5 22  1  0
  7 11  4  0
 10 15  1  0
 11 16  4  0
 12  6  1  0
 13  8  1  0
 14 17  1  0
 14  8  1  0
 14 20  1  0
 14 13  1  0
 17 25  1  0
 17 19  1  0
 18 23  4  0
 19  4  1  0
 19 12  1  0
 20 13  1  0
 21  4  2  0
 22  3  2  3
 23 16  4  0
 24 18  4  0
 24  7  4  0
 26 25  1  0
 27  1  2  3
 27 26  1  0
M  END
$$$$

     RDKit          3D

 28 32  0  0  0  0  0  0  0  0999 V2000
    4.7350   47.8680   53.7710 N   0  0  0  0  0  0  0  0  0  0  0  0
    8.9720   47.7630   53.8360 C   0  0  0  0  0  0  0  0  0  0  0  0
    2.2540   46.5800   52.5070 C   0  0  0  0  0  0  0  0  0  0  0  0
    3.2660   46.0850   53.2240 C   0  0  0  0  0  0  0  0  0  0  0  0
    7.7240   47.7610   54.3160 N   0  0  0  0  0  0  0  0  0  0  0  0
    5.8290   41.8550   49.8480 C   0  0  0  0  0  0  0  0  0  0  0  0
    9.0290   43.9190   49.5730 N   0  0  0  0  0  0  0  0  0  0  0  0
    4.6190   46.6310   53.1850 C   0  0  0  0  0  0  0  0  0  0  0  0
    1.0760   45.8730   52.5380 C   0  0  0  0  0  0  0  0  0  0  0  0
    6.4460   42.0950   48.5870 C   0  0  0  0  0  0  0  0  0  0  0  0
    4.0630   40.6210   48.6490 C   0  0  0  0  0  0  0  0  0  0  0  0
    7.8420   43.6940   49.3790 C   0  0  0  0  0  0  0  0  0  0  0  0
    6.8290   47.0390   53.8090 C   0  0  0  0  0  0  0  0  0  0  0  0
    1.9670   44.3350   54.1360 C   0  0  0  0  0  0  0  0  0  0  0  0
    3.2030   44.9870   54.0350 C   0  0  0  0  0  0  0  0  0  0  0  0
    6.9340   46.3200   52.6580 N   0  0  0  0  0  0  0  0  0  0  0  0
    8.1560   46.2590   52.2390 C   0  0  0  0  0  0  0  0  0  0  0  0
   10.8030   45.1700   50.7130 N   0  0  0  0  0  0  0  0  0  0  0  0
    6.9180   44.7030   50.2920 S   0  0  0  0  0  0  0  0  0  0  0  0
    0.8900   44.8080   53.3880 C   0  0  0  0  0  0  0  0  0  0  0  0
    5.8660   41.6190   47.4360 C   0  0  0  0  0  0  0  0  0  0  0  0
    4.6700   41.1370   49.7900 C   0  0  0  0  0  0  0  0  0  0  0  0
    9.4690   44.8650   50.4720 C   0  0  0  0  0  0  0  0  0  0  0  0
    7.6170   42.7620   48.5430 N   0  0  0  0  0  0  0  0  0  0  0  0
    9.2770   46.9290   52.7650 C   0  0  0  0  0  0  0  0  0  0  0  0
    8.2950   45.3650   51.0640 C   0  0  0  0  0  0  0  0  0  0  0  0
    4.6580   40.9500   47.3780 C   0  0  0  0  0  0  0  0  0  0  0  0
    5.4170   46.9280   54.4290 C   0  0  0  0  0  0  0  0  0  0  0  0
  1 28  1  0
  2  5  4  0
  3  9  4  0
  3  4  4  0
  4 15  4  0
  7 23  4  0
  8  4  1  0
  8  1  1  0
  8 28  1  0
  9 20  4  0
 10  6  4  0
 11 22  4  0
 12  7  4  0
 12 19  4  0
 13  5  4  0
 15 14  4  0
 16 13  4  0
 17 16  4  0
 17 25  4  0
 19 26  4  0
 20 14  4  0
 21 10  4  0
 22  6  4  0
 23 18  1  0
 23 26  4  0
 24 10  1  0
 24 12  1  0
 25  2  4  0
 26 17  1  0
 27 21  4  0
 27 11  4  0
 28 13  1  0
M  END
$$$$

     RDKit          3D

 36 40  0  0  0  0  0  0  0  0999 V2000
    5.8380   41.6150   47.3920 C   0  0  0  0  0  0  0  0  0  0  0  0
    2.7000   44.5300   55.8200 O   0  0  0  0  0  0  0  0  0  0  0  0
    5.1680   47.7410   53.9200 C   0  0  0  0  0  0  0  0  0  0  0  0
    7.5750   42.7550   48.5100 N   0  0  0  0  0  0  0  0  0  0  0  0
    6.8490   44.9700   50.3500 S   0  0  0  0  0  0  0  0  0  0  0  0
    4.0240   40.6430   48.6960 C   0  0  0  0  0  0  0  0  0  0  0  0
    4.4310   44.9010   51.3930 C   0  0  0  0  0  0  0  0  0  0  0  0
    9.4790   44.8780   50.4540 C   0  0  0  0  0  0  0  0  0  0  0  0
    8.7780   48.1990   54.3610 C   0  0  0  0  0  0  0  0  0  0  0  0
    4.7360   46.5110   54.8570 C   0  0  0  0  0  0  0  0  0  0  0  0
    9.7110   46.5200   52.7160 C   0  0  0  0  0  0  0  0  0  0  0  0
    8.3570   45.5120   51.1210 C   0  0  0  0  0  0  0  0  0  0  0  0
   10.8080   45.1700   50.7370 N   0  0  0  0  0  0  0  0  0  0  0  0
    5.7160   46.8520   52.8220 N   0  0  0  0  0  0  0  0  0  0  0  0
    7.3330   46.9960   52.7790 C   0  0  0  0  0  0  0  0  0  0  0  0
    2.1070   42.6640   52.8830 C   0  0  0  0  0  0  0  0  0  0  0  0
    9.7970   47.0540   54.1260 C   0  0  0  0  0  0  0  0  0  0  0  0
    2.2660   45.7550   52.0140 C   0  0  0  0  0  0  0  0  0  0  0  0
    9.0610   43.9230   49.5310 N   0  0  0  0  0  0  0  0  0  0  0  0
    5.8870   41.7100   49.8360 C   0  0  0  0  0  0  0  0  0  0  0  0
    5.6450   45.3510   55.5850 Cl  0  0  0  0  0  0  0  0  0  0  0  0
    6.3930   42.0170   48.6060 C   0  0  0  0  0  0  0  0  0  0  0  0
    3.6860   40.3460   46.3560 C   0  0  0  0  0  0  0  0  0  0  0  0
    8.4490   46.3500   52.1530 N   0  0  0  0  0  0  0  0  0  0  0  0
    4.6190   40.9220   47.3690 C   0  0  0  0  0  0  0  0  0  0  0  0
    3.5090   46.1110   54.3300 C   0  0  0  0  0  0  0  0  0  0  0  0
    4.6580   41.1120   49.8170 C   0  0  0  0  0  0  0  0  0  0  0  0
    7.8320   43.8110   49.3460 C   0  0  0  0  0  0  0  0  0  0  0  0
    7.5880   47.9720   53.6290 N   0  0  0  0  0  0  0  0  0  0  0  0
    2.4890   43.6070   50.7330 C   0  0  0  0  0  0  0  0  0  0  0  0
    2.9920   44.9080   51.1070 N   0  0  0  0  0  0  0  0  0  0  0  0
    4.6410   46.1530   52.2050 C   0  0  0  0  0  0  0  0  0  0  0  0
    1.2170   46.1430   55.3280 C   0  0  0  0  0  0  0  0  0  0  0  0
    3.2270   46.3980   52.9110 C   0  0  0  0  0  0  0  0  0  0  0  0
    2.5720   45.6420   55.1980 N   0  0  0  0  0  0  0  0  0  0  0  0
    1.4120   43.0840   51.5890 C   0  0  0  0  0  0  0  0  0  0  0  0
  1 22  4  0
  3 10  1  0
  4 22  1  0
  4 28  1  0
  5 12  4  0
  6 27  4  0
  8 13  1  0
  8 12  4  0
 10 21  1  0
 11 17  1  0
 12 24  1  0
 14  3  1  0
 15 14  1  0
 15 29  1  0
 17  9  1  0
 19  8  4  0
 22 20  4  0
 23 25  1  0
 24 11  1  0
 24 15  1  0
 25  1  4  0
 25  6  4  0
 26 10  1  0
 26 35  1  0
 27 20  4  0
 28 19  4  0
 28  5  4  0
 29  9  1  0
 30 31  1  0
 30 36  1  0
 31  7  1  0
 31 18  1  0
 32  7  1  0
 32 14  1  0
 32 34  1  0
 34 18  1  0
 34 26  1  0
 35 33  1  0
 35  2  1  0
 36 16  1  0
M  END
$$$$

     RDKit          3D

 18 19  0  0  0  0  0  0  0  0999 V2000
    9.0670   43.9500   49.5700 N   0  0  0  0  0  0  0  0  0  0  0  0
    8.0420   46.5500   52.0010 C   0  0  0  0  0  0  0  0  0  0  0  0
    5.7320   45.7160   54.3350 C   0  0  0  0  0  0  0  0  0  0  0  0
    7.5940   42.7590   48.5120 N   0  0  0  0  0  0  0  0  0  0  0  0
    5.7990   41.8150   49.8070 C   0  0  0  0  0  0  0  0  0  0  0  0
    5.8600   41.6340   47.3810 C   0  0  0  0  0  0  0  0  0  0  0  0
   10.7720   45.1770   50.7210 N   0  0  0  0  0  0  0  0  0  0  0  0
    6.7850   46.7630   52.4610 N   0  0  0  0  0  0  0  0  0  0  0  0
    9.4510   44.9300   50.5130 C   0  0  0  0  0  0  0  0  0  0  0  0
    4.6820   40.9140   47.4730 C   0  0  0  0  0  0  0  0  0  0  0  0
    6.5370   46.7030   53.7420 N   0  0  0  0  0  0  0  0  0  0  0  0
    6.4530   42.0350   48.5580 C   0  0  0  0  0  0  0  0  0  0  0  0
    7.8550   43.8130   49.3150 C   0  0  0  0  0  0  0  0  0  0  0  0
    9.1140   47.7080   52.7000 S   0  0  0  0  0  0  0  0  0  0  0  0
    4.5730   41.0960   49.7980 C   0  0  0  0  0  0  0  0  0  0  0  0
    4.0420   40.6440   48.6480 C   0  0  0  0  0  0  0  0  0  0  0  0
    6.8150   44.8820   50.2170 S   0  0  0  0  0  0  0  0  0  0  0  0
    8.2510   45.5640   50.9430 C   0  0  0  0  0  0  0  0  0  0  0  0
  1  9  4  0
  2  8  1  0
  2 14  2  0
  4 12  1  0
  4 13  1  0
  6 10  4  0
  6 12  4  0
  8 11  1  0
  9  7  1  0
  9 18  4  0
 10 16  4  0
 11  3  1  0
 12  5  4  0
 13  1  4  0
 13 17  4  0
 15  5  4  0
 16 15  4  0
 17 18  4  0
 18  2  1  0
M  END
$$$$

     RDKit          3D

 28 27  0  0  0  0  0  0  0  0999 V2000
    3.9890   46.3870   52.1270 C   0  0  0  0  0  0  0  0  0  0  0  0
    3.1320   39.6900   46.1680 O   0  0  0  0  0  0  0  0  0  0  0  0
    5.8560   41.7630   49.8050 C   0  0  0  0  0  0  0  0  0  0  0  0
    8.7780   47.0380   52.7890 N   0  0  0  0  0  0  0  0  0  0  0  0
    4.2340   41.1600   45.1570 O   0  0  0  0  0  0  0  0  0  0  0  0
    4.0070   40.5770   46.1710 C   0  0  0  0  0  0  0  0  0  0  0  0
    6.5350   45.0550   54.3410 Cl  0  0  0  0  0  0  0  0  0  0  0  0
    9.7810   45.7900   51.3360 C   0  0  0  0  0  0  0  0  0  0  0  0
    4.7540   46.1080   53.2680 C   0  0  0  0  0  0  0  0  0  0  0  0
    6.4290   46.8990   52.5960 C   0  0  0  0  0  0  0  0  0  0  0  0
    5.8600   41.6640   47.3740 C   0  0  0  0  0  0  0  0  0  0  0  0
    4.6310   41.0710   49.8070 C   0  0  0  0  0  0  0  0  0  0  0  0
    2.8350   45.6440   54.5820 C   0  0  0  0  0  0  0  0  0  0  0  0
    6.4550   42.0760   48.5790 C   0  0  0  0  0  0  0  0  0  0  0  0
    6.0930   47.6920   52.8100 N   0  0  0  0  0  0  0  0  0  0  0  0
    8.8560   47.9990   53.7940 C   0  0  0  0  0  0  0  0  0  0  0  0
    7.8270   43.7660   49.3840 N   0  0  0  0  0  0  0  0  0  0  0  0
    7.8540   46.5190   52.1110 C   0  0  0  0  0  0  0  0  0  0  0  0
    2.0590   45.9730   53.5020 C   0  0  0  0  0  0  0  0  0  0  0  0
    2.5750   46.3470   52.2930 C   0  0  0  0  0  0  0  0  0  0  0  0
    4.0590   40.6230   48.6510 C   0  0  0  0  0  0  0  0  0  0  0  0
    7.5890   42.8210   48.5340 N   0  0  0  0  0  0  0  0  0  0  0  0
    9.0590   44.0150   49.4890 N   0  0  0  0  0  0  0  0  0  0  0  0
    8.4010   45.6990   51.1450 C   0  0  0  0  0  0  0  0  0  0  0  0
   10.7700   45.2370   50.7570 N   0  0  0  0  0  0  0  0  0  0  0  0
    9.8720   46.6710   52.2980 N   0  0  0  0  0  0  0  0  0  0  0  0
    4.2240   45.6740   54.4450 C   0  0  0  0  0  0  0  0  0  0  0  0
    4.6640   40.9500   47.4190 C   0  0  0  0  0  0  0  0  0  0  0  0
  1 20  4  0
  1  9  4  0
  2  6  1  0
  3 12  4  0
  4 16  1  0
  5  6  2  0
  6 28  1  0
  8 26  4  0
  9 27  4  0
 10 15  2  0
 11 28  4  0
 11 14  4  0
 14  3  4  0
 17 23  1  0
 18 10  1  0
 18  4  4  0
 19 13  4  0
 20 19  4  0
 21 12  4  0
 22 14  1  0
 22 17  1  0
 24  8  4  0
 24 18  4  0
 25  8  1  0
 26  4  4  0
 27 13  4  0
 28 21  4  0
M  END
$$$$

     RDKit          3D

 23 25  0  0  0  0  0  0  0  0999 V2000
    6.2610   46.8110   53.4900 C   0  0  0  0  0  0  0  0  0  0  0  0
    5.8760   41.6350   47.4090 C   0  0  0  0  0  0  0  0  0  0  0  0
    3.8320   45.1280   54.8630 C   0  0  0  0  0  0  0  0  0  0  0  0
    6.4120   44.5250   50.1610 S   0  0  0  0  0  0  0  0  0  0  0  0
    7.3630   48.0330   52.9440 Cl  0  0  0  0  0  0  0  0  0  0  0  0
    8.4350   45.7780   51.2760 C   0  0  0  0  0  0  0  0  0  0  0  0
    7.8050   43.7810   49.4170 C   0  0  0  0  0  0  0  0  0  0  0  0
    5.8580   41.8130   49.7890 C   0  0  0  0  0  0  0  0  0  0  0  0
    9.0790   43.9260   49.5750 N   0  0  0  0  0  0  0  0  0  0  0  0
    5.1360   44.7630   52.8720 C   0  0  0  0  0  0  0  0  0  0  0  0
    3.7850   44.8410   53.4440 C   0  0  0  0  0  0  0  0  0  0  0  0
    4.6780   40.9560   47.3960 C   0  0  0  0  0  0  0  0  0  0  0  0
    4.6450   41.0810   49.8190 C   0  0  0  0  0  0  0  0  0  0  0  0
    9.0450   46.5760   52.0770 O   0  0  0  0  0  0  0  0  0  0  0  0
    7.5800   42.7450   48.4810 N   0  0  0  0  0  0  0  0  0  0  0  0
    9.3810   44.9400   50.4420 C   0  0  0  0  0  0  0  0  0  0  0  0
   10.7430   45.2930   50.7190 N   0  0  0  0  0  0  0  0  0  0  0  0
    6.4900   42.1300   48.6080 C   0  0  0  0  0  0  0  0  0  0  0  0
    6.9520   45.7500   51.2810 C   0  0  0  0  0  0  0  0  0  0  0  0
    5.5740   46.8560   54.8180 C   0  0  0  0  0  0  0  0  0  0  0  0
    6.0590   45.7810   52.5420 C   0  0  0  0  0  0  0  0  0  0  0  0
    4.1140   46.6470   55.0100 C   0  0  0  0  0  0  0  0  0  0  0  0
    4.0380   40.6340   48.6280 C   0  0  0  0  0  0  0  0  0  0  0  0
  1 20  1  0
  2 18  4  0
  3 22  1  0
  4 19  1  0
  5  1  1  0
  6 19  1  0
  6 14  2  0
  7  9  2  0
  7  4  1  0
  8 13  4  0
  9 16  1  0
 10 11  1  0
 11  3  1  0
 12  2  4  0
 12 23  4  0
 15 18  1  0
 15  7  1  0
 16 17  1  0
 16  6  1  0
 18  8  4  0
 19 21  1  0
 20 22  1  0
 21 10  1  0
 21  1  2  0
 23 13  4  0
M  END
$$$$

     RDKit          3D

 27 29  0  0  0  0  0  0  0  0999 V2000
    9.4670   45.3440   51.0060 C   0  0  0  0  0  0  0  0  0  0  0  0
    3.8860   48.6290   53.8080 N   0  0  0  0  0  0  0  0  0  0  0  0
    6.7600   45.5270   51.3850 C   0  0  0  0  0  0  0  0  0  0  0  0
   10.8240   45.1510   50.7610 N   0  0  0  0  0  0  0  0  0  0  0  0
    6.4610   42.0500   48.6070 C   0  0  0  0  0  0  0  0  0  0  0  0
    2.6300   43.3660   52.2240 C   0  0  0  0  0  0  0  0  0  0  0  0
    4.0170   40.6330   48.6640 C   0  0  0  0  0  0  0  0  0  0  0  0
    8.4490   44.6300   50.2520 C   0  0  0  0  0  0  0  0  0  0  0  0
    5.5710   46.9120   52.9320 C   0  0  0  0  0  0  0  0  0  0  0  0
    7.0990   44.7420   50.3550 N   0  0  0  0  0  0  0  0  0  0  0  0
    9.9840   47.0870   52.9450 Cl  0  0  0  0  0  0  0  0  0  0  0  0
    4.0640   44.9450   53.8050 C   0  0  0  0  0  0  0  0  0  0  0  0
    4.6460   41.0720   49.7950 C   0  0  0  0  0  0  0  0  0  0  0  0
    5.8500   41.8510   49.8400 C   0  0  0  0  0  0  0  0  0  0  0  0
    4.6200   47.8430   53.4160 C   0  0  0  0  0  0  0  0  0  0  0  0
    5.1340   44.4750   54.7840 C   0  0  0  0  0  0  0  0  0  0  0  0
    4.4430   44.9260   52.3880 N   0  0  0  0  0  0  0  0  0  0  0  0
    7.0240   46.9820   53.3420 C   0  0  0  0  0  0  0  0  0  0  0  0
    2.4060   45.7360   51.2210 C   0  0  0  0  0  0  0  0  0  0  0  0
    8.9570   43.8190   49.4530 N   0  0  0  0  0  0  0  0  0  0  0  0
    7.6860   42.7890   48.5610 N   0  0  0  0  0  0  0  0  0  0  0  0
    5.8400   41.6730   47.3870 C   0  0  0  0  0  0  0  0  0  0  0  0
    4.6660   40.9310   47.4540 C   0  0  0  0  0  0  0  0  0  0  0  0
    7.6340   46.2090   52.2360 N   0  0  0  0  0  0  0  0  0  0  0  0
    3.3560   44.5420   51.5770 C   0  0  0  0  0  0  0  0  0  0  0  0
    8.9550   46.1680   51.9890 C   0  0  0  0  0  0  0  0  0  0  0  0
    5.3290   45.9950   51.8410 C   0  0  0  0  0  0  0  0  0  0  0  0
  1 26  2  0
  3 10  1  0
  3 27  1  0
  3 24  1  0
  4  1  1  0
  5 14  4  0
  7 13  4  0
  8 10  2  0
  8  1  1  0
  9 18  1  0
  9 15  1  0
 12 16  1  0
 13 14  4  0
 15  2  3  0
 17 12  1  0
 19 25  1  0
 20  8  1  0
 21  5  1  0
 21 20  1  0
 22 23  4  0
 22  5  4  0
 23  7  4  0
 24 18  1  0
 25  6  1  0
 25 17  1  0
 26 24  1  0
 26 11  1  0
 27 17  1  0
 27  9  1  0
M  END
$$$$

     RDKit          3D

 18 18  0  0  0  0  0  0  0  0999 V2000
    7.7720   43.6150   49.3890 C   0  0  0  0  0  0  0  0  0  0  0  0
    9.4390   44.8820   50.4740 C   0  0  0  0  0  0  0  0  0  0  0  0
    5.7950   41.8960   49.7370 C   0  0  0  0  0  0  0  0  0  0  0  0
    6.5980   46.7760   52.4590 C   0  0  0  0  0  0  0  0  0  0  0  0
    4.6620   41.1260   49.7780 C   0  0  0  0  0  0  0  0  0  0  0  0
    4.0770   40.6470   48.5960 C   0  0  0  0  0  0  0  0  0  0  0  0
    6.2220   44.2230   50.1900 S   0  0  0  0  0  0  0  0  0  0  0  0
   10.7430   45.1280   50.7080 N   0  0  0  0  0  0  0  0  0  0  0  0
    7.5450   42.6930   48.5160 N   0  0  0  0  0  0  0  0  0  0  0  0
    7.4210   45.1120   50.9270 C   0  0  0  0  0  0  0  0  0  0  0  0
    9.0510   43.9390   49.6030 N   0  0  0  0  0  0  0  0  0  0  0  0
    4.7150   40.9920   47.3810 C   0  0  0  0  0  0  0  0  0  0  0  0
    8.4440   45.4550   51.1230 N   0  0  0  0  0  0  0  0  0  0  0  0
    7.8910   46.4990   51.9610 C   0  0  0  0  0  0  0  0  0  0  0  0
    5.9160   41.7070   47.5180 C   0  0  0  0  0  0  0  0  0  0  0  0
    6.5640   47.8230   53.3010 N   0  0  0  0  0  0  0  0  0  0  0  0
    7.6760   48.1080   53.5980 N   0  0  0  0  0  0  0  0  0  0  0  0
    8.6100   47.3230   52.8450 C   0  0  0  0  0  0  0  0  0  0  0  0
  1 11  1  0
  1  7  1  0
  2  8  1  0
  2 13  1  0
  3  5  2  0
  4 16  1  0
  6  5  1  0
  7 10  1  0
  9  1  2  0
 10 13  1  0
 11  2  2  0
 12 15  1  0
 12  6  2  3
 13 14  1  0
 14  4  1  0
 14 18  1  0
 16 17  1  0
 18 17  1  0
M  END
$$$$

     RDKit          3D

 28 31  0  0  0  0  0  0  0  0999 V2000
    8.6760   45.8860   51.3270 C   0  0  0  0  0  0  0  0  0  0  0  0
    4.4660   44.8640   52.4310 C   0  0  0  0  0  0  0  0  0  0  0  0
   10.7680   45.2360   50.7610 N   0  0  0  0  0  0  0  0  0  0  0  0
    4.0630   40.6850   48.6280 C   0  0  0  0  0  0  0  0  0  0  0  0
    1.0250   45.1100   53.7560 C   0  0  0  0  0  0  0  0  0  0  0  0
    6.4760   42.0470   48.5730 C   0  0  0  0  0  0  0  0  0  0  0  0
    2.2480   45.4540   53.1770 N   0  0  0  0  0  0  0  0  0  0  0  0
    4.6950   40.8920   47.4450 C   0  0  0  0  0  0  0  0  0  0  0  0
    6.9330   47.4290   52.7710 C   0  0  0  0  0  0  0  0  0  0  0  0
    7.8220   43.7610   49.5010 C   0  0  0  0  0  0  0  0  0  0  0  0
    5.8360   41.6630   47.3760 C   0  0  0  0  0  0  0  0  0  0  0  0
    9.1080   46.9850   52.0390 N   0  0  0  0  0  0  0  0  0  0  0  0
    5.0210   47.1370   53.9690 C   0  0  0  0  0  0  0  0  0  0  0  0
    6.4050   46.3940   52.1770 N   0  0  0  0  0  0  0  0  0  0  0  0
    4.4070   46.2930   52.9370 C   0  0  0  0  0  0  0  0  0  0  0  0
    2.4960   43.6530   51.6760 O   0  0  0  0  0  0  0  0  0  0  0  0
    2.9320   44.5120   52.4150 C   0  0  0  0  0  0  0  0  0  0  0  0
    1.0680   45.0900   55.2200 C   0  0  0  0  0  0  0  0  0  0  0  0
    6.4840   44.5190   50.2440 S   0  0  0  0  0  0  0  0  0  0  0  0
    4.6670   41.0920   49.8150 C   0  0  0  0  0  0  0  0  0  0  0  0
    5.8750   41.7860   49.8020 C   0  0  0  0  0  0  0  0  0  0  0  0
    3.0890   46.5700   53.5170 C   0  0  0  0  0  0  0  0  0  0  0  0
    5.9660   48.0670   53.5070 N   0  0  0  0  0  0  0  0  0  0  0  0
    9.5030   44.9830   50.5210 C   0  0  0  0  0  0  0  0  0  0  0  0
    9.0950   43.9620   49.6640 N   0  0  0  0  0  0  0  0  0  0  0  0
    7.5830   42.7480   48.5690 N   0  0  0  0  0  0  0  0  0  0  0  0
    7.2860   45.6880   51.2750 C   0  0  0  0  0  0  0  0  0  0  0  0
    8.2790   47.7280   52.6840 C   0  0  0  0  0  0  0  0  0  0  0  0
  1 12  4  0
  2 15  1  0
  4 20  4  0
  5 18  1  0
  6 21  4  0
  7 22  1  0
  7  5  1  0
  8  4  4  0
  9 23  1  0
 10 25  4  0
 10 19  4  0
 11  8  4  0
 11  6  4  0
 12 28  4  0
 14  9  4  0
 15 22  1  0
 15 13  1  0
 16 17  2  0
 17  2  1  0
 17  7  1  0
 19 27  4  0
 21 20  4  0
 23 13  1  0
 24  3  2  0
 24  1  4  0
 25 24  4  0
 26  6  1  0
 26 10  1  0
 27  1  4  0
 27 14  4  0
 28  9  4  0
M  END
$$$$

     RDKit          3D

 23 25  0  0  0  0  0  0  0  0999 V2000
    6.9280   45.1510   50.7070 N   0  0  0  0  0  0  0  0  0  0  0  0
    5.1400   45.1490   54.7670 C   0  0  0  0  0  0  0  0  0  0  0  0
    9.0850   43.9700   49.5610 N   0  0  0  0  0  0  0  0  0  0  0  0
    8.2040   45.4660   51.0130 C   0  0  0  0  0  0  0  0  0  0  0  0
    9.1240   47.1940   52.6330 O   0  0  0  0  0  0  0  0  0  0  0  0
    8.0510   43.6290   49.2680 C   0  0  0  0  0  0  0  0  0  0  0  0
    3.2400   44.6810   53.4520 C   0  0  0  0  0  0  0  0  0  0  0  0
    4.6720   40.9010   47.4250 C   0  0  0  0  0  0  0  0  0  0  0  0
    5.8560   41.8710   49.8380 C   0  0  0  0  0  0  0  0  0  0  0  0
    6.4330   42.1040   48.5570 C   0  0  0  0  0  0  0  0  0  0  0  0
    4.0160   45.7700   52.7840 C   0  0  0  0  0  0  0  0  0  0  0  0
    9.4070   44.9120   50.4380 C   0  0  0  0  0  0  0  0  0  0  0  0
    8.2070   46.4690   52.1440 C   0  0  0  0  0  0  0  0  0  0  0  0
    6.1950   46.9750   53.7790 C   0  0  0  0  0  0  0  0  0  0  0  0
    4.6910   41.1170   49.7830 C   0  0  0  0  0  0  0  0  0  0  0  0
    7.5880   42.8070   48.5040 N   0  0  0  0  0  0  0  0  0  0  0  0
    4.0630   40.6800   48.6930 C   0  0  0  0  0  0  0  0  0  0  0  0
    4.8740   46.3000   53.8600 N   0  0  0  0  0  0  0  0  0  0  0  0
    6.0580   45.8050   51.4700 C   0  0  0  0  0  0  0  0  0  0  0  0
    6.8550   46.5370   52.3730 C   0  0  0  0  0  0  0  0  0  0  0  0
   10.7520   45.2960   50.7320 N   0  0  0  0  0  0  0  0  0  0  0  0
    5.8670   41.6490   47.4010 C   0  0  0  0  0  0  0  0  0  0  0  0
    3.7530   44.6430   54.8840 C   0  0  0  0  0  0  0  0  0  0  0  0
  1  4  1  0
  1 19  2  0
  2 23  1  0
  3 12  1  0
  4 12  1  0
  4 13  1  0
  6  3  2  3
  7 23  1  0
  8 17  4  0
 10  9  4  0
 11  7  1  0
 11 18  1  0
 12 21  2  0
 13 20  1  0
 13  5  2  0
 14 18  1  0
 15  9  4  0
 16 10  1  0
 16  6  1  0
 17 15  4  0
 18  2  1  0
 19 20  1  0
 20 14  1  0
 22  8  4  0
 22 10  4  0
M  END
$$$$

     RDKit          3D

 36 40  0  0  0  0  0  0  0  0999 V2000
    6.3820   46.2770   54.0060 C   0  0  0  0  0  0  0  0  0  0  0  0
    2.7360   40.2450   46.1650 O   0  0  0  0  0  0  0  0  0  0  0  0
    7.8090   43.7680   49.3850 C   0  0  0  0  0  0  0  0  0  0  0  0
    4.9120   46.1420   52.6220 C   0  0  0  0  0  0  0  0  0  0  0  0
    4.0600   40.4760   46.1570 C   0  0  0  0  0  0  0  0  0  0  0  0
   -0.9560   44.9810   53.9230 O   0  0  0  0  0  0  0  0  0  0  0  0
    6.2400   46.1570   52.1000 C   0  0  0  0  0  0  0  0  0  0  0  0
    2.9500   45.9050   54.3210 C   0  0  0  0  0  0  0  0  0  0  0  0
    2.6090   45.7510   52.8630 C   0  0  0  0  0  0  0  0  0  0  0  0
    9.0980   43.8980   49.5850 N   0  0  0  0  0  0  0  0  0  0  0  0
    9.7640   47.4650   54.0370 C   0  0  0  0  0  0  0  0  0  0  0  0
    1.9710   41.3450   45.6480 C   0  0  0  0  0  0  0  0  0  0  0  0
    4.6690   40.9280   47.4200 C   0  0  0  0  0  0  0  0  0  0  0  0
    1.4030   45.2950   52.7320 N   0  0  0  0  0  0  0  0  0  0  0  0
    3.6430   45.9180   51.9570 C   0  0  0  0  0  0  0  0  0  0  0  0
    4.0580   40.6760   48.6480 C   0  0  0  0  0  0  0  0  0  0  0  0
    7.6120   42.7450   48.4740 N   0  0  0  0  0  0  0  0  0  0  0  0
    8.3230   45.6920   51.1000 C   0  0  0  0  0  0  0  0  0  0  0  0
    7.1810   47.2320   52.3630 C   0  0  0  0  0  0  0  0  0  0  0  0
    5.8360   41.6640   47.4250 C   0  0  0  0  0  0  0  0  0  0  0  0
    4.1210   46.1350   54.8310 N   0  0  0  0  0  0  0  0  0  0  0  0
    9.4860   44.9120   50.4560 C   0  0  0  0  0  0  0  0  0  0  0  0
    5.8540   41.7720   49.7770 C   0  0  0  0  0  0  0  0  0  0  0  0
    9.1580   48.0840   54.8810 N   0  0  0  0  0  0  0  0  0  0  0  0
   10.7870   45.1840   50.7460 N   0  0  0  0  0  0  0  0  0  0  0  0
    0.9240   43.3730   54.6410 N   0  0  0  0  0  0  0  0  0  0  0  0
    9.7940   46.9570   52.8330 N   0  0  0  0  0  0  0  0  0  0  0  0
    6.4070   42.1250   48.6100 C   0  0  0  0  0  0  0  0  0  0  0  0
    0.2350   44.2890   53.4810 S   0  0  0  0  0  0  0  0  0  0  0  0
    8.5720   46.8590   51.9860 C   0  0  0  0  0  0  0  0  0  0  0  0
    1.7420   45.7780   55.2270 C   0  0  0  0  0  0  0  0  0  0  0  0
   -0.1710   43.1690   52.6350 O   0  0  0  0  0  0  0  0  0  0  0  0
    4.6970   41.0940   49.8260 C   0  0  0  0  0  0  0  0  0  0  0  0
    6.8870   44.9670   50.3300 S   0  0  0  0  0  0  0  0  0  0  0  0
    5.0360   46.1740   53.8170 N   0  0  0  0  0  0  0  0  0  0  0  0
    4.6400   41.0080   44.8440 C   0  0  0  0  0  0  0  0  0  0  0  0
  3 10  2  0
  4 15  1  0
  4 35  1  0
  5 36  1  0
  5  2  1  0
  5 13  1  0
  7 19  1  0
  7  4  1  0
  7  1  1  0
  8 21  2  0
  8 31  1  0
  9  8  1  0
 10 22  1  0
 11 24  2  0
 12  2  1  0
 13 20  4  0
 13 16  4  0
 14  9  1  0
 14 29  1  0
 15  9  2  0
 16 33  4  0
 17 28  1  0
 17  3  1  0
 18 30  1  0
 20 28  4  0
 22 25  1  0
 22 18  2  0
 23 33  4  0
 27 11  1  0
 28 23  4  0
 29  6  2  0
 29 26  1  0
 30 19  1  0
 30 27  1  0
 32 29  2  0
 34  3  1  0
 34 18  1  0
 34  7  1  0
 35  1  1  0
 35 21  1  0
M  END
$$$$

     RDKit          3D

 18 20  0  0  0  0  0  0  0  0999 V2000
    4.6100   41.0870   49.8180 C   0  0  0  0  0  0  0  0  0  0  0  0
    6.4990   46.5120   52.3330 N   0  0  0  0  0  0  0  0  0  0  0  0
    5.1770   46.0900   52.1150 C   0  0  0  0  0  0  0  0  0  0  0  0
    9.1340   43.9340   49.5920 N   0  0  0  0  0  0  0  0  0  0  0  0
    7.6470   45.2760   50.4010 S   0  0  0  0  0  0  0  0  0  0  0  0
    7.9890   43.7870   49.3740 C   0  0  0  0  0  0  0  0  0  0  0  0
    4.0650   40.6570   48.5990 C   0  0  0  0  0  0  0  0  0  0  0  0
   10.7880   45.1710   50.7340 N   0  0  0  0  0  0  0  0  0  0  0  0
    7.6210   42.7670   48.4850 N   0  0  0  0  0  0  0  0  0  0  0  0
    4.7540   46.5500   53.4370 C   0  0  0  0  0  0  0  0  0  0  0  0
    9.4340   44.9200   50.3970 C   0  0  0  0  0  0  0  0  0  0  0  0
    5.8800   41.7220   49.8170 C   0  0  0  0  0  0  0  0  0  0  0  0
    6.4580   42.0160   48.5890 C   0  0  0  0  0  0  0  0  0  0  0  0
    8.7330   46.8960   52.2190 O   0  0  0  0  0  0  0  0  0  0  0  0
    7.7550   46.3750   51.7440 C   0  0  0  0  0  0  0  0  0  0  0  0
    5.8580   41.6180   47.4330 C   0  0  0  0  0  0  0  0  0  0  0  0
    6.2980   47.0130   53.6940 C   0  0  0  0  0  0  0  0  0  0  0  0
    4.6750   40.8960   47.4240 C   0  0  0  0  0  0  0  0  0  0  0  0
  2 17  1  0
  3  2  1  0
  3 10  1  0
  4 11  1  0
  5 15  1  0
  6  4  2  0
  6  5  1  0
  7  1  4  0
  9 13  1  0
  9  6  1  0
 10 17  1  0
 11  5  1  0
 11  8  1  0
 12  1  4  0
 13 12  4  0
 15 14  2  0
 15  2  1  0
 16 13  4  0
 18 16  4  0
 18  7  4  0
M  END
$$$$

     RDKit          3D

 23 24  0  0  0  0  0  0  0  0999 V2000
    3.1680   45.2540   53.7610 C   0  0  0  0  0  0  0  0  0  0  0  0
    5.9780   46.9190   52.5640 C   0  0  0  0  0  0  0  0  0  0  0  0
    3.7280   46.1290   52.7600 N   0  0  0  0  0  0  0  0  0  0  0  0
    5.8120   41.8300   49.7900 C   0  0  0  0  0  0  0  0  0  0  0  0
    8.6230   46.8190   52.3240 S   0  0  0  0  0  0  0  0  0  0  0  0
    1.7700   45.6110   54.2340 C   0  0  0  0  0  0  0  0  0  0  0  0
    9.0840   43.9260   49.5950 N   0  0  0  0  0  0  0  0  0  0  0  0
    6.2960   46.4200   51.8410 N   0  0  0  0  0  0  0  0  0  0  0  0
    6.9510   45.1590   50.4310 S   0  0  0  0  0  0  0  0  0  0  0  0
    4.6390   41.1120   49.7980 C   0  0  0  0  0  0  0  0  0  0  0  0
    9.5390   44.9130   50.5180 C   0  0  0  0  0  0  0  0  0  0  0  0
    7.1260   47.4590   52.6390 C   0  0  0  0  0  0  0  0  0  0  0  0
    8.4390   45.6170   51.0910 C   0  0  0  0  0  0  0  0  0  0  0  0
    7.9900   43.7920   49.3460 C   0  0  0  0  0  0  0  0  0  0  0  0
    4.0170   40.6160   48.6510 C   0  0  0  0  0  0  0  0  0  0  0  0
    5.8300   41.6220   47.3560 C   0  0  0  0  0  0  0  0  0  0  0  0
    4.0350   45.1170   55.0650 C   0  0  0  0  0  0  0  0  0  0  0  0
   10.7920   45.1970   50.7850 N   0  0  0  0  0  0  0  0  0  0  0  0
    4.6420   40.9040   47.4200 C   0  0  0  0  0  0  0  0  0  0  0  0
    7.5960   42.7990   48.5170 N   0  0  0  0  0  0  0  0  0  0  0  0
    6.4700   42.1220   48.5590 C   0  0  0  0  0  0  0  0  0  0  0  0
    2.9870   46.4720   51.5670 C   0  0  0  0  0  0  0  0  0  0  0  0
    4.5610   47.1340   53.2360 C   0  0  0  0  0  0  0  0  0  0  0  0
  1  6  1  0
  1 17  1  0
  2 12  2  0
  2 23  1  0
  3 23  1  0
  3  1  1  0
  4 10  4  0
  7 11  1  0
  8  2  1  0
  9 13  1  0
  9  8  1  0
 11 18  2  0
 11 13  1  0
 13  5  2  0
 14  7  2  0
 14  9  1  0
 15 10  4  0
 16 19  4  0
 16 21  4  0
 19 15  4  0
 20 21  1  0
 20 14  1  0
 21  4  4  0
 22  3  1  0
M  END
$$$$

     RDKit          3D

 27 30  0  0  0  0  0  0  0  0999 V2000
    5.2130   47.1810   53.0490 C   0  0  0  0  0  0  0  0  0  0  0  0
    3.7130   46.9900   53.1440 C   0  0  0  0  0  0  0  0  0  0  0  0
    3.5170   45.9810   54.2420 C   0  0  0  0  0  0  0  0  0  0  0  0
    4.6360   41.1110   49.8130 C   0  0  0  0  0  0  0  0  0  0  0  0
    6.1990   46.8550   52.1500 N   0  0  0  0  0  0  0  0  0  0  0  0
    5.8940   41.6280   47.4080 C   0  0  0  0  0  0  0  0  0  0  0  0
    9.1100   43.9720   49.6010 N   0  0  0  0  0  0  0  0  0  0  0  0
    2.3530   44.3990   52.5450 C   0  0  0  0  0  0  0  0  0  0  0  0
    3.4650   44.8260   51.4950 N   0  0  0  0  0  0  0  0  0  0  0  0
    5.8560   47.6650   54.1170 N   0  0  0  0  0  0  0  0  0  0  0  0
    8.3740   45.7240   50.9150 C   0  0  0  0  0  0  0  0  0  0  0  0
    9.9670   46.7600   53.4290 C   0  0  0  0  0  0  0  0  0  0  0  0
    4.0490   40.6560   48.6280 C   0  0  0  0  0  0  0  0  0  0  0  0
    6.9820   45.0630   50.2130 S   0  0  0  0  0  0  0  0  0  0  0  0
    2.7920   44.7670   53.9820 C   0  0  0  0  0  0  0  0  0  0  0  0
    7.9040   43.8630   49.3370 C   0  0  0  0  0  0  0  0  0  0  0  0
    7.3770   47.2150   52.7600 C   0  0  0  0  0  0  0  0  0  0  0  0
    2.7330   46.9470   51.9190 C   0  0  0  0  0  0  0  0  0  0  0  0
    3.1000   45.9340   50.8620 C   0  0  0  0  0  0  0  0  0  0  0  0
    7.6170   42.8000   48.5820 N   0  0  0  0  0  0  0  0  0  0  0  0
    6.4490   42.0760   48.5970 C   0  0  0  0  0  0  0  0  0  0  0  0
    9.4570   44.9560   50.4230 C   0  0  0  0  0  0  0  0  0  0  0  0
    8.9940   47.0690   52.0010 S   0  0  0  0  0  0  0  0  0  0  0  0
   10.7510   45.1760   50.7090 N   0  0  0  0  0  0  0  0  0  0  0  0
    4.6960   40.8990   47.4010 C   0  0  0  0  0  0  0  0  0  0  0  0
    5.8170   41.8280   49.7820 C   0  0  0  0  0  0  0  0  0  0  0  0
    7.2010   47.6780   53.9880 C   0  0  0  0  0  0  0  0  0  0  0  0
  1 10  4  0
  2  1  1  0
  2  3  1  0
  5 17  4  0
  5  1  4  0
  6 21  4  0
  7 22  4  0
  8 15  1  0
  9  8  1  0
 11 23  1  0
 13  4  4  0
 14 11  4  0
 15  3  2  0
 16  7  4  0
 16 14  4  0
 17 27  4  0
 18  2  1  0
 19  9  1  0
 19 18  1  0
 20 21  1  0
 20 16  1  0
 21 26  4  0
 22 24  1  0
 22 11  4  0
 23 17  1  0
 23 12  1  0
 25  6  4  0
 25 13  4  0
 26  4  4  0
 27 10  4  0
M  END
$$$$
